38
../min.omega.0.chi1.300.phi1.150.log	Energy: -505583.7882175
N         -0.22586        1.10706        0.14002
C         -0.22122        3.35192       -0.95818
C          0.47614        2.24265       -0.19261
C          0.50062        0.16383        1.02037
C         -0.32975       -0.98280        1.59817
C          1.80117       -0.35711        0.41317
C          2.98292       -0.31177        1.16248
C          4.15781       -0.85930        0.66684
C          4.17511       -1.45836       -0.59152
C          3.00847       -1.50624       -1.34192
C          1.82414       -0.96493       -0.84154
C         -1.61291        1.01226       -0.25546
O          1.62203        2.42099        0.19596
C         -2.16230       -0.40461       -0.53515
C         -3.98961       -1.99925       -0.40608
C         -4.11804        0.06231        0.95529
N         -3.37492       -0.74213       -0.00111
O         -1.56168       -1.13266       -1.30869
H         -0.47291        3.05373       -1.97058
H          0.46831        4.18068       -1.00236
H         -1.13192        3.67003       -0.46286
H         -2.24524        1.53398        0.45127
H         -1.74406        1.49794       -1.21008
H          0.80005        0.76614        1.87045
H          2.98501        0.17252        2.12306
H          5.05881       -0.80957        1.25240
H          5.08729       -1.87702       -0.97831
H          3.01157       -1.96731       -2.31393
H          0.92224       -1.01755       -1.42275
H         -0.55195       -1.75052        0.87388
H         -1.25194       -0.62907        2.05005
H          0.25915       -1.43624        2.38701
H         -4.06081       -2.67569        0.43978
H         -4.57248        0.93506        0.49700
H         -3.39130       -2.45560       -1.17440
H         -3.50243        0.38151        1.78563
H         -4.98824       -1.81629       -0.78868
H         -4.91180       -0.54948        1.35977
