38
../min.omega.0.chi1.105.phi1.210.log	Energy: -505584.3950574
N         -1.37387       -0.53760       -0.01582
C         -3.58960       -1.27068       -0.89656
C         -2.24578       -1.57355       -0.25993
C         -0.31491       -0.65810        1.01208
C         -0.59469       -1.64215        2.14853
C          1.07529       -0.86515        0.41546
C          2.16025       -0.13418        0.91404
C          3.44308       -0.34382        0.42803
C          3.66427       -1.29171       -0.56958
C          2.59586       -2.02427       -1.06786
C          1.30658       -1.81662       -0.57726
C         -1.76094        0.80878       -0.37181
O         -1.96022       -2.73382        0.00099
C         -0.55189        1.69603       -0.74407
C          0.91251        3.56924       -0.38170
C         -0.96533        3.22547        1.18450
N         -0.15972        2.70432        0.09206
O          0.01224        1.47428       -1.80319
H         -4.12408       -0.48278       -0.37849
H         -4.16681       -2.18193       -0.86211
H         -3.47092       -0.97488       -1.93351
H         -2.34171        0.79168       -1.27764
H         -2.37045        1.26040        0.40300
H         -0.29635        0.31745        1.48300
H          1.99794        0.60462        1.68051
H          4.26503        0.22936        0.81913
H          4.65681       -1.45231       -0.95110
H          2.75820       -2.75796       -1.83719
H          0.48651       -2.39310       -0.96150
H         -0.49250       -2.66947        1.84372
H         -1.59208       -1.49925        2.55258
H          0.12103       -1.43836        2.93849
H          0.52460        4.40651       -0.95614
H         -1.36239        2.43654        1.80520
H          1.58026        2.99994       -1.00446
H         -1.78816        3.84492        0.83538
H          1.45680        3.95485        0.47113
H         -0.33101        3.83721        1.81069
