38
../min.omega.0.chi1.300.phi1.300.log	Energy: -505588.8178145
N         -0.17192        0.28764        0.23562
C         -0.99806        2.15954       -1.22596
C          0.00198        1.56177       -0.25360
C          0.92551       -0.22051        1.08998
C          0.62589       -1.56009        1.76368
C          2.26779       -0.27153        0.36390
C          3.40507        0.30307        0.94397
C          4.64584        0.19285        0.33231
C          4.77671       -0.48936       -0.87604
C          3.65589       -1.05900       -1.46399
C          2.41080       -0.95378       -0.84372
C         -1.29736       -0.53626       -0.14373
O          0.94825        2.24354        0.11464
C         -2.66997        0.07487        0.21688
C         -5.07871       -0.00778        0.08136
C         -3.78873       -1.85892       -0.88370
N         -3.77618       -0.51501       -0.32892
O         -2.74920        1.04670        0.95065
H         -1.51407        1.43715       -1.84521
H         -0.44961        2.84270       -1.85878
H         -1.73253        2.71623       -0.66122
H         -1.27855       -0.74782       -1.20783
H         -1.22894       -1.48824        0.35368
H          1.03213        0.50745        1.88230
H          3.30896        0.85469        1.86180
H          5.50725        0.64708        0.78874
H          5.73802       -0.56826       -1.35147
H          3.74433       -1.58479       -2.39830
H          1.55087       -1.40103       -1.31246
H          0.57162       -2.38495        1.06114
H         -0.29142       -1.52133        2.34245
H          1.43829       -1.77730        2.44672
H         -5.78443       -0.16136       -0.72589
H         -4.00517       -2.60537       -0.12256
H         -5.00380        1.04371        0.29822
H         -2.85107       -2.10887       -1.35337
H         -5.44420       -0.52202        0.96646
H         -4.55936       -1.91730       -1.64166
