38
../min.omega.0.chi1.330.phi1.270.log	Energy: -505586.1065613
N         -0.22033        0.44039       -0.31333
C         -0.81347        2.85503       -0.26691
C          0.18159        1.72982       -0.05094
C          0.60628       -0.72990        0.06032
C          0.31227       -1.96186       -0.79640
C          2.11607       -0.50210        0.07260
C          2.84028       -0.74930        1.24497
C          4.22591       -0.67324        1.25168
C          4.91835       -0.35275        0.08529
C          4.21062       -0.11259       -1.08427
C          2.81807       -0.19489       -1.09234
C         -1.56425        0.18982       -0.78281
O          1.28419        2.00574        0.40070
C         -2.56367       -0.04881        0.37122
C         -4.78105       -0.73821        1.09271
C         -4.25848       -0.74429       -1.31685
N         -3.84119       -0.39926        0.03255
O         -2.20973        0.10635        1.52872
H         -1.08532        2.97418       -1.31083
H         -0.33124        3.76012        0.06814
H         -1.71523        2.69660        0.31197
H         -1.91811        1.02504       -1.36701
H         -1.56994       -0.65351       -1.45208
H          0.32697       -0.97978        1.07791
H          2.31548       -0.98585        2.15356
H          4.76544       -0.85898        2.16346
H          5.99192       -0.29072        0.09293
H          4.73393        0.13810       -1.99006
H          2.28306        0.00252       -2.00478
H          0.44728       -1.76350       -1.85487
H         -0.68573       -2.35570       -0.63850
H          1.00806       -2.74214       -0.51584
H         -5.73660       -0.26589        0.89458
H         -4.10529       -1.79863       -1.53529
H         -4.39529       -0.38704        2.03365
H         -3.73937       -0.15616       -2.05836
H         -4.93139       -1.81315        1.14811
H         -5.31479       -0.53050       -1.41638
