38
../min.omega.180.chi1.285.phi1.30.log	Energy: -502111.6729065
N          0.36531        1.13614        0.48204
C         -1.26158        2.37582        1.30824
C         -0.36412        2.23580        0.09257
C         -0.42161        0.25863       -0.41418
C          0.27166       -0.74536       -1.33586
C         -1.84943       -0.21860       -0.15905
C         -3.09733        0.40775       -0.05667
C         -4.27787       -0.30435        0.10154
C         -4.29164       -1.69746        0.14299
C         -3.08001       -2.35694       -0.01018
C         -1.91140       -1.61157       -0.16769
C          1.25752        0.01147        0.65047
O         -1.09516        2.42338       -0.86985
C          2.60603        0.20346       -0.07909
C          4.90770       -0.52950       -0.41544
C          3.48986       -1.78862        1.15360
N          3.61159       -0.66820        0.23497
O          2.75100        1.13229       -0.85716
H         -1.49310        1.40164        1.68508
H         -2.15780        2.94820        1.11887
H         -0.74846        2.89618        2.15054
H          1.84892        0.33256        1.55532
H          0.69607       -0.82933        0.98683
H         -0.83332        0.94635       -1.12692
H         -3.19990        1.46012       -0.15345
H         -5.20564        0.23996        0.16981
H         -5.21400       -2.24370        0.26046
H         -3.03795       -3.43456       -0.01374
H         -0.99275       -2.16369       -0.29716
H          0.64965       -1.66988       -0.91756
H          1.07682       -0.26144       -1.85993
H         -0.45916       -1.04300       -2.09483
H          5.68470       -0.36684        0.33006
H          3.56860       -2.73881        0.61991
H          4.88687        0.31506       -1.08792
H          2.54959       -1.77682        1.69124
H          5.14240       -1.43464       -0.97960
H          4.28682       -1.74155        1.89261
