38
../min.omega.0.chi1.105.phi1.120.log	Energy: -505590.6458744
N          0.12452        1.18528       -0.01549
C          0.79219        3.03520       -1.54434
C         -0.04881        2.49404       -0.40295
C         -0.68419        0.52078        1.03184
C         -1.31832        1.42073        2.09302
C         -1.69359       -0.43595        0.40153
C         -1.68481       -1.79570        0.73476
C         -2.61169       -2.67022        0.18530
C         -3.56682       -2.20109       -0.71487
C         -3.58594       -0.85525       -1.05361
C         -2.65570        0.02298       -0.49736
C          1.08159        0.31769       -0.66403
O         -0.90587        3.21963        0.08162
C          2.16637       -0.23309        0.28856
C          4.02141       -1.73403        0.66917
C          3.01584       -1.65996       -1.56978
N          2.92310       -1.27521       -0.17070
O          2.32979        0.24424        1.39969
H          1.85617        2.96837       -1.34723
H          0.52148        4.07269       -1.66487
H          0.57881        2.50777       -2.46814
H          0.55009       -0.51916       -1.10297
H          1.58110        0.82536       -1.47168
H          0.02611       -0.08501        1.57106
H         -0.95049       -2.16683        1.42922
H         -2.59059       -3.71158        0.45372
H         -4.28487       -2.87815       -1.14197
H         -4.32236       -0.48345       -1.74376
H         -2.68373        1.06636       -0.75685
H         -2.15420        1.99073        1.72432
H         -0.58582        2.10472        2.50041
H         -1.66241        0.77005        2.89151
H          4.16812       -2.79503        0.50706
H          3.80248       -1.11364       -2.08589
H          3.78117       -1.55794        1.70325
H          2.08618       -1.50286       -2.09232
H          4.94620       -1.21470        0.43101
H          3.24678       -2.71595       -1.62643
