38
../min.omega.180.chi1.165.phi1.90.log	Energy: -505588.8992257
N         -0.38238        1.28457        0.25751
C         -1.02035        3.71937       -0.07321
C         -1.30410        2.29882        0.37890
C          0.76822        1.22574       -0.67263
C          1.58163        2.50991       -0.83811
C          1.74616        0.13157       -0.25084
C          1.98791       -0.95188       -1.10391
C          2.92018       -1.92427       -0.77055
C          3.62709       -1.83698        0.42749
C          3.39137       -0.77093        1.28446
C          2.45833        0.20915        0.94544
C         -0.87883        0.02185        0.75588
O         -2.38403        2.09081        0.91401
C         -1.59394       -0.80492       -0.33620
C         -2.95521       -2.72763       -0.91847
C         -2.37256       -2.34647        1.44624
N         -2.16374       -1.98521        0.05343
O         -1.60676       -0.42880       -1.49703
H         -0.96767        3.78608       -1.15284
H         -0.10645        4.11333        0.34612
H         -1.85607        4.31077        0.26768
H         -0.06306       -0.56766        1.14312
H         -1.56056        0.21951        1.56235
H          0.38333        0.94970       -1.64360
H          1.43394       -1.03332       -2.02185
H          3.09325       -2.74924       -1.43829
H          4.34807       -2.59152        0.68625
H          3.92907       -0.69514        2.21279
H          2.28060        1.02567        1.62278
H          1.88794        2.92683        0.11432
H          1.06770        3.27082       -1.40338
H          2.47957        2.25980       -1.39003
H         -2.79276       -3.78993       -0.77617
H         -3.27617       -1.89977        1.85353
H         -2.65183       -2.44773       -1.91217
H         -1.53326       -2.05700        2.06004
H         -4.01576       -2.51984       -0.80144
H         -2.46629       -3.42281        1.51144
