38
../min.omega.0.chi1.195.phi1.150.log	Energy: -505582.7605289
N          1.68579       -0.05474       -0.23847
C          3.93665        1.05092       -0.17601
C          3.05225       -0.16987       -0.35040
C          1.04164       -1.29782        0.24353
C          1.46573       -1.59596        1.68207
C         -0.47180       -1.35706        0.04994
C         -0.97181       -1.51585       -1.24807
C         -2.33042       -1.67646       -1.48080
C         -3.22513       -1.69008       -0.41218
C         -2.74546       -1.53941        0.88151
C         -1.37864       -1.37777        1.10894
C          1.15158        1.25771        0.04680
O          3.58464       -1.25686       -0.52608
C         -0.25840        1.55310       -0.51202
C         -2.44182        2.56194       -0.30531
C         -1.24370        2.04149        1.76025
N         -1.20111        2.10785        0.30842
O         -0.42804        1.45678       -1.71664
H          3.81225        1.76751       -0.98054
H          4.95713        0.70034       -0.18038
H          3.73201        1.55702        0.76080
H          1.22027        1.49604        1.10127
H          1.74519        1.98756       -0.47685
H          1.45761       -2.07187       -0.37828
H         -0.28951       -1.49278       -2.07755
H         -2.68906       -1.79181       -2.48750
H         -4.27770       -1.82304       -0.58826
H         -3.42388       -1.56054        1.71603
H         -1.03707       -1.28597        2.12229
H          1.15972       -0.81417        2.37168
H          2.54070       -1.69459        1.73790
H          1.03182       -2.52939        2.02210
H         -3.19485        1.78064       -0.28298
H         -1.23618        3.04081        2.18436
H         -2.25916        2.84306       -1.32805
H         -0.41488        1.48853        2.16660
H         -2.81009        3.41960        0.24637
H         -2.15391        1.54251        2.07357
