38
../min.omega.0.chi1.360.phi1.120.log	Energy: -505580.5345979
N         -0.24677        0.70651        0.02136
C         -0.26902        3.20029        0.16184
C          0.41490        1.89334       -0.19457
C          0.44977       -0.58801        0.19899
C         -0.12010       -1.66659       -0.72299
C          1.97534       -0.57938        0.13534
C          2.69523       -0.48854        1.33266
C          4.08055       -0.56905        1.34714
C          4.77902       -0.75504        0.15543
C          4.07779       -0.85480       -1.03820
C          2.68545       -0.76938       -1.04953
C         -1.57895        0.71507        0.58220
O          1.53554        1.94579       -0.68167
C         -2.63693        0.06985       -0.34081
C         -4.69932       -1.19617       -0.59050
C         -3.83523       -0.75062        1.68856
N         -3.68097       -0.58408        0.25242
O         -2.55218        0.21766       -1.54916
H         -1.17696        3.35176       -0.41130
H          0.42968        3.98605       -0.07944
H         -0.51307        3.25640        1.21757
H         -1.56025        0.22700        1.54888
H         -1.92882        1.71926        0.74970
H          0.21637       -0.88954        1.21670
H          2.16580       -0.35397        2.26070
H          4.61228       -0.49481        2.27911
H          5.85230       -0.82203        0.16194
H          4.60643       -0.99373       -1.96433
H          2.16558       -0.82682       -1.98689
H         -0.10707       -1.35047       -1.75704
H         -1.14283       -1.91554       -0.47155
H          0.46589       -2.57241       -0.61940
H         -4.75388       -2.26305       -0.39788
H         -3.70045        0.18108        2.22302
H         -4.44526       -1.03316       -1.62290
H         -3.15419       -1.49182        2.09620
H         -5.67104       -0.75766       -0.38722
H         -4.84431       -1.08684        1.88095
