38
../min.omega.180.chi1.120.phi1.30.log	Energy: -505584.3438295
N         -0.17676        0.74570       -0.14516
C         -0.42968        2.91315        1.15238
C         -0.93946        1.57847        0.64084
C          1.11674        0.98879       -0.82359
C          1.68194        2.40912       -0.86008
C          2.17672        0.01179       -0.32019
C          3.02306       -0.62901       -1.23296
C          4.02759       -1.48089       -0.79588
C          4.20403       -1.71304        0.56706
C          3.36782       -1.08796        1.48164
C          2.35945       -0.23075        1.04071
C         -0.77313       -0.50032       -0.57069
O         -2.03419        1.20293        1.03629
C         -2.30802       -0.48675       -0.74814
C         -4.49258       -1.36738       -0.34424
C         -2.77943       -1.71768        1.35258
N         -3.07076       -1.36300       -0.02705
O         -2.76098        0.16183       -1.67729
H          0.53189        2.81932        1.63790
H         -1.15920        3.25034        1.87239
H         -0.35156        3.65029        0.36629
H         -0.41237       -0.72960       -1.56248
H         -0.44978       -1.30649        0.07229
H          0.92943        0.74447       -1.86204
H          2.89098       -0.46222       -2.28842
H          4.66570       -1.96696       -1.51195
H          4.97917       -2.37624        0.90629
H          3.49252       -1.26476        2.53501
H          1.71054        0.23621        1.75973
H          2.02787        2.76340        0.09961
H          0.97209        3.11291       -1.27542
H          2.54193        2.38493       -1.51932
H         -4.92830       -2.28242        0.03870
H         -3.25774       -1.02751        2.03938
H         -4.62901       -1.32581       -1.41208
H         -1.72167       -1.70357        1.55363
H         -5.00168       -0.51890        0.10464
H         -3.14713       -2.71951        1.54260
