38
../min.omega.180.chi1.180.phi1.60.log	Energy: -505588.2753765
N         -0.22133        0.98749       -0.18522
C         -1.04835        3.25692       -0.88867
C         -1.25444        1.89348       -0.25508
C          1.19076        1.43144       -0.14788
C          1.43969        2.43551        0.97818
C          2.15134        0.24700       -0.07111
C          2.29419       -0.55306       -1.21108
C          3.16369       -1.63454       -1.22448
C          3.91737       -1.93716       -0.09177
C          3.78609       -1.15158        1.04492
C          2.90949       -0.06645        1.05638
C         -0.60965       -0.25110        0.45071
O         -2.36656        1.60811        0.16637
C         -1.75919       -0.92534       -0.33131
C         -3.81903       -2.16465       -0.39703
C         -3.03526       -1.25639        1.76351
N         -2.73686       -1.56913        0.37527
O         -1.69251       -0.96958       -1.54899
H         -1.17915        4.01750       -0.12876
H         -1.84092        3.38351       -1.61482
H         -0.09655        3.39544       -1.37801
H          0.20828       -0.94973        0.41498
H         -0.86772       -0.08571        1.48652
H          1.39381        1.92121       -1.09085
H          1.69896       -0.33710       -2.08072
H          3.25324       -2.23684       -2.11040
H          4.59436       -2.77232       -0.09831
H          4.36209       -1.37531        1.92493
H          2.83274        0.52047        1.95118
H          1.17483        2.01903        1.94388
H          0.85517        3.33483        0.84306
H          2.48345        2.72806        1.00548
H         -4.21817       -3.01179        0.14763
H         -3.30046       -0.21439        1.89639
H         -3.43800       -2.49850       -1.34665
H         -2.20511       -1.50059        2.41446
H         -4.61973       -1.45118       -0.57378
H         -3.87143       -1.86787        2.07278
