38
../min.omega.180.chi1.210.phi1.30.log	Energy: -505589.0847752
N         -0.19920        0.83491       -0.14704
C         -0.72504        2.98134       -1.30423
C         -1.15442        1.65887       -0.69627
C          1.13645        1.35302        0.22723
C          1.09350        2.03428        1.59551
C          2.20683        0.27118        0.10311
C          2.39501       -0.33620       -1.14418
C          3.37651       -1.29938       -1.33060
C          4.19861       -1.67401       -0.26926
C          4.02330       -1.07878        0.97227
C          3.03384       -0.11310        1.15793
C         -0.59747       -0.42696        0.43466
O         -2.33967        1.35716       -0.69670
C         -1.84722       -1.07348       -0.20388
C         -4.04645       -1.99999       -0.07838
C         -3.39710       -0.34974        1.59228
N         -2.95567       -1.28327        0.56870
O         -1.72936       -1.55329       -1.31969
H         -0.33458        3.65944       -0.55462
H         -1.60317        3.42173       -1.75108
H          0.03305        2.84432       -2.06666
H          0.18142       -1.14845        0.24994
H         -0.70630       -0.33747        1.50824
H          1.39041        2.10561       -0.50332
H          1.75289       -0.06731       -1.96395
H          3.49812       -1.75675       -2.29580
H          4.96014       -2.41953       -0.41071
H          4.64973       -1.36080        1.79947
H          2.92337        0.32814        2.12985
H          0.85253        1.33696        2.38958
H          0.33773        2.81128        1.60161
H          2.04640        2.49635        1.82877
H         -4.71567       -2.37333        0.68754
H         -4.07015        0.39202        1.17602
H         -3.65404       -2.82792       -0.64508
H         -2.56801        0.17198        2.04023
H         -4.60322       -1.35181       -0.74937
H         -3.91229       -0.89936        2.37176
