38
../min.omega.0.chi1.15.phi1.270.log	Energy: -505588.1822271
N          0.25534        1.04182        0.18513
C          0.74387        2.21038       -1.95514
C         -0.24003        1.67794       -0.92977
C         -0.55012        0.16010        1.06050
C         -0.67655        0.80766        2.43992
C         -1.89752       -0.29675        0.50613
C         -1.90193       -1.32550       -0.44346
C         -3.09382       -1.84133       -0.93248
C         -4.31233       -1.34510       -0.47243
C         -4.32053       -0.32995        0.47406
C         -3.12181        0.19112        0.96153
C          1.68128        0.89447        0.37036
O         -1.43501        1.88515       -1.08770
C          2.25930       -0.40701       -0.22934
C          4.11623       -1.97076       -0.39176
C          4.36999        0.03616        1.01935
N          3.56221       -0.70215        0.06203
O          1.57533       -1.10997       -0.95541
H          1.31180        3.04517       -1.55633
H          0.16102        2.56365       -2.79184
H          1.43401        1.44742       -2.29326
H          2.21199        1.73599       -0.04800
H          1.89082        0.91084        1.43153
H          0.03601       -0.74306        1.16890
H         -0.96442       -1.70979       -0.80299
H         -3.07393       -2.62914       -1.66455
H         -5.23765       -1.74562       -0.84682
H         -5.25398        0.06415        0.83503
H         -3.16118        0.98528        1.68167
H         -1.19593        1.75591        2.37665
H          0.29857        1.00013        2.87485
H         -1.21585        0.15878        3.12114
H          5.09141       -1.80387       -0.83518
H          4.23927       -0.33123        2.03437
H          3.45842       -2.40291       -1.12514
H          4.14846        1.09252        0.99959
H          4.22770       -2.66186        0.43929
H          5.41185       -0.08025        0.75112
