38
../min.omega.0.chi1.285.phi1.210.log	Energy: -505585.0358814
N         -0.08592        1.34357        0.17018
C          0.48734        2.80097       -1.78632
C          0.70339        2.33970       -0.35682
C          0.58720        0.52419        1.20363
C         -0.34097       -0.12943        2.22804
C          1.58826       -0.44859        0.58469
C          2.92884       -0.07136        0.44119
C          3.85550       -0.93247       -0.12943
C          3.46566       -2.19552       -0.57144
C          2.14181       -2.58711       -0.42829
C          1.21463       -1.71942        0.14919
C         -1.10490        0.77167       -0.68064
O          1.62122        2.83514        0.28190
C         -2.35560        0.25658        0.06636
C         -4.17941       -1.30625        0.25824
C         -2.53729       -1.62248       -1.55764
N         -2.89944       -0.93390       -0.32933
O         -2.86362        0.94683        0.93505
H          0.52648        1.96645       -2.47748
H          1.28197        3.49413       -2.01479
H         -0.46274        3.30753       -1.91757
H         -1.50315        1.54154       -1.32253
H         -0.68736        0.00486       -1.31955
H          1.16002        1.24800        1.75507
H          3.23851        0.90167        0.77181
H          4.88052       -0.62182       -0.22645
H          4.18535       -2.86256       -1.01126
H          1.82847       -3.56370       -0.75280
H          0.20121       -2.05604        0.27278
H         -0.94759       -0.93275        1.83220
H         -1.00039        0.60735        2.66231
H          0.28193       -0.55338        3.00859
H         -5.01079       -0.97049       -0.35618
H         -1.48767       -1.87661       -1.58790
H         -4.26811       -0.86029        1.23316
H         -2.78574       -1.04810       -2.44626
H         -4.22732       -2.38425        0.34958
H         -3.09372       -2.54774       -1.59885
