38
../min.omega.180.chi1.135.phi1.90.log	Energy: -505590.7385281
N          0.18856        1.09033       -0.21600
C          0.11467        3.62432       -0.18080
C          0.74048        2.29883       -0.57366
C         -0.76582        0.73707        0.85958
C         -1.41536        1.86411        1.66331
C         -1.85030       -0.19218        0.31930
C         -2.19053       -1.35113        1.02721
C         -3.21173       -2.18087        0.58623
C         -3.91272       -1.87023       -0.57771
C         -3.58164       -0.72662       -1.29113
C         -2.55681        0.10796       -0.84476
C          0.94166       -0.04836       -0.69092
O          1.74408        2.33182       -1.27190
C          2.01823       -0.51090        0.31636
C          3.89954       -1.95736        0.81085
C          2.85206       -2.08054       -1.41562
N          2.78929       -1.57808       -0.05267
O          2.13984        0.03422        1.40135
H          0.36712        3.87981        0.83985
H         -0.95934        3.63750       -0.28908
H          0.55114        4.36492       -0.83388
H          0.26102       -0.87281       -0.86070
H          1.40536        0.20190       -1.62800
H         -0.18667        0.17430        1.57646
H         -1.65051       -1.60256        1.92392
H         -3.45766       -3.06805        1.14208
H         -4.70161       -2.51470       -0.92175
H         -4.11419       -0.48016       -2.19241
H         -2.30109        0.98545       -1.41123
H         -2.09099        2.47268        1.07822
H         -0.68072        2.49373        2.14575
H         -2.00260        1.39340        2.44317
H          4.00935       -3.03556        0.79770
H          3.53823       -1.50502       -2.03207
H          3.69780       -1.62892        1.81550
H          1.87949       -2.07974       -1.88348
H          4.83070       -1.50906        0.47386
H          3.19836       -3.10561       -1.38825
