38
../min.omega.0.chi1.120.phi1.330.log	Energy: -505582.7703338
N          0.16674        0.94023        0.24049
C          2.15997        1.97684       -0.89682
C          0.71074        2.00045       -0.44728
C         -1.14664        1.00835        0.92083
C         -1.82691        2.37164        1.05045
C         -2.11183       -0.02841        0.35071
C         -2.88207       -0.82189        1.20930
C         -3.80035       -1.73161        0.70436
C         -3.96163       -1.86855       -0.67328
C         -3.20031       -1.08987       -1.53378
C         -2.28038       -0.17234       -1.02593
C          0.84348       -0.28005        0.61764
O          0.03782        2.97105       -0.76500
C          1.98877       -0.79224       -0.28434
C          4.17111       -1.83897       -0.48985
C          3.50484       -0.91217        1.70392
N          3.16716       -1.14991        0.30982
O          1.77523       -0.96143       -1.47385
H          2.84103        1.55709       -0.16794
H          2.43203        3.00515       -1.08346
H          2.24640        1.41328       -1.81446
H          1.15416       -0.21706        1.65299
H          0.12212       -1.08451        0.55880
H         -0.93536        0.69774        1.94223
H         -2.76124       -0.72521        2.27518
H         -4.38327       -2.33445        1.37783
H         -4.66945       -2.57640       -1.06596
H         -3.31552       -1.19189       -2.59797
H         -1.69064        0.42328       -1.69824
H         -2.20050        2.74194        0.11078
H         -1.16105        3.11329        1.47001
H         -2.66231        2.23545        1.73093
H          5.05923       -1.22412       -0.59715
H          3.02822       -1.62259        2.37252
H          3.76589       -2.04814       -1.46394
H          3.24986        0.09102        2.01741
H          4.45088       -2.77017       -0.00830
H          4.57512       -1.01996        1.81176
