38
../min.omega.180.chi1.270.phi1.330.log	Energy: -505589.0799704
N         -0.20104       -0.66866        0.12206
C          0.24678       -1.24384        2.51045
C         -0.64243       -0.66551        1.42520
C          1.11575       -1.23771       -0.24499
C          1.07578       -1.97935       -1.58158
C          2.25041       -0.21711       -0.19568
C          3.57094       -0.66602       -0.31700
C          4.63790        0.22046       -0.27785
C          4.40932        1.58538       -0.11236
C          3.10590        2.04292        0.02248
C          2.03586        1.14867       -0.01431
C         -1.04805       -0.11779       -0.91159
O         -1.70731       -0.14699        1.73015
C         -2.56403       -0.23966       -0.63860
C         -4.75717        0.68134       -0.41423
C         -2.85073        2.12405        0.05524
N         -3.32353        0.89463       -0.56041
O         -3.05733       -1.35383       -0.70525
H          0.33271       -2.32100        2.41604
H         -0.22183       -1.01442        3.45510
H          1.24122       -0.81611        2.48422
H         -0.76416        0.90078       -1.14060
H         -0.92265       -0.69049       -1.81362
H          1.33361       -1.99037        0.49706
H          3.77099       -1.71677       -0.43464
H          5.64279       -0.15072       -0.37111
H          5.23405        2.27419       -0.08196
H          2.91410        3.09191        0.16102
H          1.03919        1.52464        0.11137
H          1.03260       -1.30666       -2.42921
H          0.22604       -2.65158       -1.61651
H          1.97598       -2.57158       -1.68933
H         -5.01478        0.40804        0.60518
H         -3.35491        2.96440       -0.40768
H         -5.07837       -0.10698       -1.07450
H         -1.78998        2.25458       -0.07912
H         -5.27039        1.59941       -0.67386
H         -3.05456        2.12851        1.12035
