38
../min.omega.180.chi1.345.phi1.120.log	Energy: -500957.9347786
N         -0.20348        1.02973       -0.79862
C          1.96248        1.08959       -0.29253
C          0.89314        0.20603       -0.90795
C          0.58545        1.57810        0.32804
C         -0.12181        2.78759        0.94045
C          1.43262        0.31282        0.21460
C          2.04966       -0.44876       -0.78506
C          2.77913       -1.60513       -0.54741
C          2.92622       -2.08704        0.75212
C          2.32768       -1.36906        1.77812
C          1.60817       -0.20766        1.49622
C         -1.41325        0.43586       -1.32119
O          2.00485        0.41506       -1.37299
C         -2.48970        0.32522       -0.21819
C         -4.11644       -1.02515        0.98471
C         -2.80680       -2.09448       -0.80379
N         -3.10480       -0.88485       -0.05409
O         -2.78486        1.29756        0.45752
H          1.83693        2.37739       -0.61116
H          3.03021        0.84463       -0.60811
H          2.03922        0.91785        0.94909
H         -1.22408       -0.10732       -2.24790
H         -1.58584       -0.16906       -0.41979
H          1.52918        1.85656       -0.33048
H          1.99010       -0.14405       -1.88795
H          3.24262       -2.14114       -1.38339
H          3.49814       -2.99788        0.94983
H          2.41966       -1.70580        2.80929
H          1.16159        0.32654        2.34771
H         -0.99973        2.51480        1.54492
H         -0.46824        3.44329        0.14294
H          0.57114        3.34976        1.58351
H         -5.07171       -1.33237        0.53984
H         -2.35029       -2.86179       -0.14995
H         -4.24976       -0.06398        1.49564
H         -2.12776       -1.90918       -1.64323
H         -3.80741       -1.79206        1.71865
H         -3.73522       -2.50880       -1.21551
