38
../min.omega.0.chi1.345.phi1.120.log	Energy: -505580.3076107
N         -0.23637        0.71859        0.08099
C         -0.43665        3.18862       -0.21745
C          0.36519        1.90180       -0.28114
C          0.52791       -0.46387        0.53944
C         -0.07326       -1.78558        0.06009
C          2.03268       -0.48015        0.28078
C          2.56530       -0.76755       -0.98167
C          3.93555       -0.89861       -1.15786
C          4.80312       -0.75424       -0.07660
C          4.28657       -0.47650        1.18136
C          2.90892       -0.34505        1.35698
C         -1.61533        0.71855        0.51429
O          1.53417        1.97969       -0.63224
C         -2.54361       -0.15107       -0.36300
C         -4.57637       -1.40629       -0.65935
C         -4.29924       -0.13231        1.41169
N         -3.67510       -0.66191        0.21001
O         -2.27033       -0.34764       -1.53596
H         -1.30917        3.16827       -0.86088
H          0.22246        3.97484       -0.55064
H         -0.75953        3.40664        0.79540
H         -1.65352        0.37350        1.54201
H         -2.03132        1.71087        0.50712
H          0.42470       -0.45768        1.62350
H          1.91134       -0.86153       -1.82889
H          4.32753       -1.10901       -2.13702
H          5.86438       -0.85749       -0.21658
H          4.94484       -0.36468        2.02460
H          2.52113       -0.13278        2.33833
H         -0.13539       -1.83194       -1.01734
H         -1.06405       -1.95811        0.46266
H          0.55794       -2.59240        0.41315
H         -5.14933       -2.09848       -0.05462
H         -5.06499        0.60069        1.16766
H         -4.00550       -1.95407       -1.38928
H         -3.58326        0.33182        2.06946
H         -5.26414       -0.74518       -1.18005
H         -4.76913       -0.94287        1.95480
