38
../min.omega.0.chi1.120.phi1.270.log	Energy: -505589.5413894
N         -1.55830       -0.06808        0.42144
C         -3.40462        1.31218       -0.50134
C         -2.76078       -0.03816       -0.24651
C         -0.89170       -1.29777        0.90725
C         -1.68561       -2.60240        0.83127
C          0.48752       -1.47382        0.27616
C          1.60329       -1.71202        1.08755
C          2.85604       -1.93056        0.53199
C          3.01558       -1.91257       -0.85252
C          1.91694       -1.67597       -1.66704
C          0.65755       -1.45887       -1.10772
C         -0.92048        1.14874        0.87071
O         -3.31674       -1.04831       -0.65440
C          0.03687        1.75252       -0.18120
C          2.07508        2.94027       -0.73190
C          1.59579        2.42904        1.63701
N          1.12936        2.44634        0.25998
O         -0.25082        1.66764       -1.36407
H         -3.71778        1.77988        0.42738
H         -4.27902        1.13040       -1.10724
H         -2.73201        1.97859       -1.02270
H         -1.64595        1.91631        1.10268
H         -0.40263        0.93054        1.79052
H         -0.72634       -1.12114        1.96659
H          1.48713       -1.73392        2.15829
H          3.70196       -2.11431        1.17045
H          3.98536       -2.08013       -1.28607
H          2.03219       -1.65587       -2.73581
H         -0.18339       -1.25802       -1.74455
H         -1.83708       -2.93878       -0.18102
H         -2.65186       -2.51042        1.30705
H         -1.10547       -3.34949        1.36485
H          2.41478        3.92885       -0.44554
H          2.05771        1.48310        1.90423
H          1.58859        2.99242       -1.68990
H          0.79636        2.64439        2.33278
H          2.93624        2.28230       -0.80761
H          2.33547        3.20924        1.75123
