38
../min.omega.180.chi1.240.phi1.300.log	Energy: -505595.4279741
N         -0.15355        0.74987        0.01470
C         -0.25098        3.16902       -0.61987
C         -0.80825        1.75794       -0.65475
C          1.05450        0.92748        0.85229
C          0.73573        0.71831        2.33308
C          2.21328        0.09745        0.30477
C          2.53801        0.18838       -1.05403
C          3.60664       -0.51887       -1.58660
C          4.37896       -1.34199       -0.76890
C          4.06728       -1.44448        0.57972
C          2.99351       -0.73009        1.11142
C         -0.76348       -0.55721       -0.07942
O         -1.81448        1.50690       -1.30309
C         -2.19820       -0.55293        0.49428
C         -4.50555       -1.23343        0.40323
C         -3.03721       -1.69742       -1.53191
N         -3.15505       -1.29622       -0.13936
O         -2.40794        0.02868        1.54637
H         -0.22987        3.56048        0.39088
H         -0.90094        3.78375       -1.22380
H          0.75491        3.21042       -1.02200
H         -0.73435       -0.89811       -1.10130
H         -0.19082       -1.25491        0.51583
H          1.34299        1.96178        0.74125
H          1.94538        0.80943       -1.70129
H          3.83561       -0.43090       -2.63362
H          5.20619       -1.89253       -1.17931
H          4.65240       -2.07763        1.22246
H          2.77771       -0.82927        2.15790
H          0.46624       -0.30609        2.55836
H         -0.10556        1.33861        2.60892
H          1.58883        0.99081        2.94537
H         -5.07243       -0.41813       -0.03832
H         -3.93887       -2.22687       -1.80594
H         -4.45609       -1.08325        1.46790
H         -2.20935       -2.37905       -1.68203
H         -5.01427       -2.16700        0.19564
H         -2.92354       -0.84455       -2.19043
