38
../min.omega.0.chi1.270.phi1.150.log	Energy: -505584.4567008
N         -0.23557        1.24498        0.17197
C         -0.94757        3.43655       -0.80577
C          0.10769        2.51995       -0.21488
C          0.71890        0.56403        1.07628
C          0.01004       -0.15701        2.22334
C          1.81487       -0.25165        0.39435
C          2.91106        0.41103       -0.17068
C          3.96370       -0.29445       -0.73642
C          3.95716       -1.68822       -0.73891
C          2.88462       -2.35960       -0.16856
C          1.82505       -1.64598        0.39188
C         -1.60831        0.82806       -0.00432
O          1.22673        2.97667       -0.02777
C         -1.85442       -0.67535       -0.26271
C         -3.40626       -2.50247       -0.47028
C         -4.30763       -0.24882       -0.13914
N         -3.14037       -1.11535       -0.11336
O         -0.95268       -1.42671       -0.59662
H         -1.28132        3.10122       -1.78222
H         -0.48954        4.40733       -0.91421
H         -1.81497        3.52007       -0.16064
H         -2.20551        1.12144        0.85331
H         -2.02538        1.33038       -0.86302
H          1.24114        1.38411        1.54379
H          2.93409        1.48216       -0.16634
H          4.79166        0.24181       -1.16574
H          4.77512       -2.23600       -1.17269
H          2.86241       -3.43507       -0.15811
H          1.00493       -2.19378        0.80895
H         -0.55195       -1.02849        1.92169
H         -0.65937        0.52548        2.73834
H          0.75633       -0.48279        2.93848
H         -4.26703       -2.84688        0.08927
H         -4.65018       -0.06548       -1.15541
H         -2.55252       -3.11004       -0.22483
H         -4.11832        0.69971        0.33646
H         -3.61389       -2.60830       -1.53184
H         -5.10989       -0.73033        0.40452
