38
../min.omega.180.chi1.225.phi1.120.log	Energy: -505589.6028056
N          1.58061        0.00880        0.06542
C          3.53316       -1.31860       -0.75191
C          2.85226        0.00578       -0.45984
C          1.03957       -1.17323        0.77435
C          1.26157       -1.07661        2.28415
C         -0.38797       -1.53082        0.36719
C         -0.60594       -2.12834       -0.88001
C         -1.88015       -2.50510       -1.28032
C         -2.96957       -2.29020       -0.43792
C         -2.76908       -1.69857        0.80152
C         -1.48592       -1.32528        1.20177
C          0.99274        1.30475        0.31883
O          3.43646        1.04377       -0.73755
C         -0.31362        1.54404       -0.47095
C         -2.41345        2.68092       -0.74025
C         -0.85305        3.51623        0.95243
N         -1.21043        2.43818        0.04462
O         -0.52129        0.96162       -1.52301
H          3.81395       -1.83570        0.15946
H          4.42894       -1.09173       -1.30934
H          2.90228       -1.97612       -1.33727
H          0.80939        1.41962        1.37794
H          1.70510        2.05838        0.02391
H          1.63744       -2.00475        0.44246
H          0.22315       -2.27879       -1.54766
H         -2.02474       -2.95844       -2.24435
H         -3.95768       -2.58173       -0.74604
H         -3.60170       -1.52984        1.46101
H         -1.35939       -0.87699        2.16953
H          0.71314       -0.26705        2.74888
H          2.31511       -0.91917        2.49030
H          0.95554       -1.99904        2.76527
H         -3.17841        3.08055       -0.08531
H         -0.65630        4.43816        0.40974
H         -2.75658        1.75486       -1.16981
H          0.02099        3.27868        1.53612
H         -2.23300        3.39177       -1.54238
H         -1.67317        3.69563        1.63760
