38
../min.omega.180.chi1.240.phi1.150.log	Energy: -505586.0214603
N         -0.35549        1.32857        0.00070
C          0.76218        3.50741       -0.48747
C         -0.48228        2.64643       -0.37372
C          0.74097        0.96286        0.92618
C          0.19593        0.60702        2.30981
C          1.73030       -0.05393        0.36150
C          2.07056       -0.01850       -0.99608
C          3.06029       -0.84404       -1.51059
C          3.73973       -1.73187       -0.67827
C          3.41059       -1.77980        0.66924
C          2.41863       -0.94493        1.18406
C         -1.62481        0.64006        0.06463
O         -1.56164        3.13541       -0.67658
C         -1.60158       -0.87509       -0.23762
C         -2.81417       -2.95089       -0.38925
C         -4.06980       -0.89790        0.08549
N         -2.77132       -1.54523       -0.00915
O         -0.60375       -1.44708       -0.64543
H          0.54683        4.26810       -1.22350
H          1.64401        2.95427       -0.77894
H          0.96252        4.00618        0.45569
H         -2.09784        0.79293        1.02773
H         -2.27050        1.10370       -0.66268
H          1.31087        1.86668        1.07218
H          1.53149        0.62990       -1.65963
H          3.29421       -0.80246       -2.55956
H          4.50424       -2.37498       -1.07602
H          3.91944       -2.46292        1.32608
H          2.19357       -1.01287        2.23101
H         -0.29128       -0.36076        2.32924
H         -0.51169        1.36082        2.63768
H          0.99961        0.58840        3.03465
H         -3.54180       -3.45878        0.23205
H         -4.51962       -0.75078       -0.89406
H         -1.84441       -3.39424       -0.24267
H         -4.00879        0.05734        0.58098
H         -3.09952       -3.07391       -1.43109
H         -4.72976       -1.52750        0.66851
