38
../min.omega.0.chi1.270.phi1.210.log	Energy: -505586.6198301
N         -0.00543        1.45599        0.15767
C          0.52993        3.06142       -1.68264
C          0.74830        2.51975       -0.28199
C          0.62206        0.62800        1.21275
C         -0.31714        0.20922        2.34442
C          1.44246       -0.50903        0.60811
C          2.69800       -0.21988        0.06032
C          3.47778       -1.21571       -0.51070
C          3.02210       -2.53249       -0.54379
C          1.78352       -2.83629        0.00400
C          1.00246       -1.83177        0.57577
C         -0.98543        0.89140       -0.74241
O          1.63761        3.00880        0.40050
C         -2.21660        0.27361       -0.04233
C         -3.90538       -1.44274        0.10915
C         -2.11192       -1.70134       -1.56305
N         -2.62770       -0.97669       -0.41287
O         -2.82673        0.94483        0.77399
H          0.61520        2.27570       -2.42492
H          1.29417        3.80337       -1.85475
H         -0.44109        3.53117       -1.79542
H         -1.41754        1.68037       -1.33648
H         -0.52238        0.18836       -1.42145
H          1.32492        1.30477        1.66343
H          3.06562        0.78949        0.09317
H          4.44139       -0.96900       -0.91961
H          3.62799       -3.30600       -0.98060
H          1.42376       -3.85005       -0.00359
H          0.05322       -2.09679        1.00230
H         -1.04353       -0.54300        2.07579
H         -0.85751        1.07193        2.70784
H          0.28857       -0.19324        3.15018
H         -4.70846       -1.26702       -0.60203
H         -1.03837       -1.80500       -1.52668
H         -4.13020       -0.92153        1.02276
H         -2.39546       -1.23938       -2.50536
H         -3.84385       -2.50623        0.30584
H         -2.53239       -2.69697       -1.54552
