38
../min.omega.0.chi1.45.phi1.150.log	Energy: -505587.0763088
N          0.38889        0.58989       -0.14675
C          0.16255        2.95182       -0.94855
C         -0.20886        1.82217       -0.00453
C         -0.32488       -0.63221        0.28866
C          0.13152       -1.03007        1.69306
C         -1.84485       -0.57487        0.15032
C         -2.39579       -0.83450       -1.11068
C         -3.76911       -0.84999       -1.31216
C         -4.62936       -0.61786       -0.23998
C         -4.09885       -0.36832        1.01846
C         -2.71739       -0.34345        1.21345
C          1.36893        0.37358       -1.18698
O         -1.01111        2.03462        0.89484
C          2.45558       -0.65439       -0.79777
C          4.41893       -1.28572        0.48809
C          3.44102        0.93363        0.87346
N          3.42945       -0.29226        0.09131
O          2.43300       -1.75268       -1.32963
H          1.18037        3.29214       -0.78751
H         -0.50871        3.76970       -0.73627
H          0.06311        2.66224       -1.98838
H          0.92225       -0.03462       -2.08616
H          1.85146        1.30090       -1.44800
H          0.00715       -1.40333       -0.39114
H         -1.74184       -1.03866       -1.94180
H         -4.16601       -1.05366       -2.29072
H         -5.69458       -0.63509       -0.38648
H         -4.75272       -0.18400        1.85203
H         -2.33399       -0.12209        2.18932
H         -0.07871       -0.24251        2.40527
H          1.19947       -1.21435        1.70164
H         -0.36698       -1.93775        2.01527
H          5.40102       -0.82646        0.50555
H          3.16348        0.74008        1.90494
H          4.41383       -2.09826       -0.21706
H          2.75968        1.66521        0.47656
H          4.20173       -1.67233        1.48022
H          4.43985        1.35505        0.86011
