38
../min.omega.0.chi1.255.phi1.30.log	Energy: -505588.0873037
N         -0.18049        1.05069        0.28703
C         -1.89607        1.84489       -1.37772
C         -0.55807        1.96267       -0.67148
C          1.16901        1.20247        0.87719
C          1.09788        1.29612        2.40176
C          2.13200        0.15072        0.33132
C          2.42030        0.15823       -1.03867
C          3.29668       -0.76712       -1.58776
C          3.90772       -1.72273       -0.77779
C          3.63422       -1.73864        0.58286
C          2.75282       -0.80722        1.13207
C         -0.91955       -0.09570        0.76545
O          0.18873        2.87410       -0.99928
C         -1.88298       -0.78877       -0.22401
C         -3.99802       -1.91116       -0.63414
C         -3.72287       -0.63273        1.46522
N         -3.14923       -1.07569        0.20476
O         -1.46281       -1.14154       -1.31404
H         -1.81315        1.12820       -2.18216
H         -2.11516        2.82064       -1.78544
H         -2.70727        1.54047       -0.72885
H         -0.20137       -0.87679        0.98253
H         -1.41600        0.14486        1.69423
H          1.51316        2.15754        0.52232
H          1.96012        0.89681       -1.66879
H          3.50435       -0.74268       -2.64249
H          4.58714       -2.43953       -1.20313
H          4.10131       -2.46871        1.21981
H          2.56626       -0.83731        2.18955
H          0.75314        0.38509        2.87832
H          0.42351        2.09805        2.68160
H          2.07803        1.52682        2.80388
H         -4.34378       -2.77160       -0.07055
H         -3.54732        0.41968        1.64341
H         -3.43374       -2.24591       -1.48636
H         -3.35121       -1.20082        2.31255
H         -4.86269       -1.35096       -0.97572
H         -4.79312       -0.77563        1.41357
