38
../min.omega.180.chi1.300.phi1.0.log	Energy: -505583.9646650
N         -0.30190       -0.88424        0.11549
C          0.64645       -0.43379        2.39490
C         -0.50418       -0.45108        1.40563
C          1.02187       -1.36284       -0.34393
C          1.00874       -1.94726       -1.75688
C          2.13960       -0.32796       -0.23817
C          3.39614       -0.71599        0.24206
C          4.45198        0.18347        0.28639
C          4.27361        1.49490       -0.15062
C          3.03485        1.89046       -0.63583
C          1.97629        0.98316       -0.68375
C         -1.39670       -0.90141       -0.82815
O         -1.59412       -0.03602        1.77386
C         -2.79807       -0.42981       -0.37946
C         -4.47945        1.25583       -0.09603
C         -2.16084        1.96198       -0.42786
N         -3.13585        0.88746       -0.52176
O         -3.62977       -1.28689       -0.12875
H          1.29094       -1.29922        2.33227
H          0.20317       -0.38364        3.37829
H          1.25078        0.44991        2.23682
H         -1.12616       -0.33214       -1.70896
H         -1.58744       -1.91587       -1.14125
H          1.29838       -2.18618        0.30591
H          3.54490       -1.72409        0.58958
H          5.40758       -0.13289        0.66436
H          5.08939        2.19379       -0.11149
H          2.88666        2.89870       -0.97889
H          1.02567        1.30523       -1.06633
H          0.79098       -1.20367       -2.51302
H          0.30634       -2.76525       -1.85388
H          1.99879       -2.33595       -1.96210
H         -4.53838        1.34699        0.98497
H         -2.48443        2.78837       -1.05012
H         -5.18133        0.50616       -0.42052
H         -1.19559        1.63695       -0.78079
H         -4.73591        2.20778       -0.54563
H         -2.05069        2.30780        0.59409
