38
../min.omega.180.chi1.60.phi1.300.log	Energy: -502109.0754546
N          1.70466       -0.97059       -0.54399
C          4.06358       -1.05850       -0.37851
C          2.82367       -0.18375       -0.39664
C          0.44959       -1.75357       -0.47878
C          0.79459       -2.35956        0.88205
C         -1.00751       -1.36565       -0.23824
C         -1.88945       -1.04238       -1.27638
C         -3.22478       -0.72934       -1.06490
C         -3.72031       -0.73892        0.23778
C         -2.86676       -1.07068        1.28076
C         -1.52670       -1.38630        1.05570
C          0.85155        0.19574       -0.50955
O          3.00370        0.84804        0.23489
C          0.53307        1.34556        0.47232
C         -0.77683        3.37553        0.65414
C         -0.88723        2.21026       -1.46261
N         -0.31172        2.23770       -0.12766
O          0.87190        1.52504        1.63082
H          3.85206       -1.79477        0.33673
H          4.95121       -0.54329       -0.07910
H          4.30284       -1.57028       -1.28374
H          1.26738        0.89097       -1.25122
H         -0.07216        0.04378       -0.93822
H          0.62753       -2.71153       -0.93299
H         -1.52258       -1.03944       -2.28744
H         -3.85567       -0.49215       -1.89638
H         -4.74521       -0.50342        0.43570
H         -3.21970       -1.09646        2.29414
H         -0.93963       -1.63571        1.89655
H          0.81232       -1.69501        1.70066
H          1.78449       -2.80061        0.87391
H          0.14169       -3.17466        1.15911
H         -0.49723        4.30067        0.16702
H         -1.95723        2.05438       -1.40729
H         -0.34136        3.34246        1.63244
H         -0.47406        1.44761       -2.08504
H         -1.85736        3.33293        0.73027
H         -0.71144        3.15958       -1.95207
