38
../min.omega.180.chi1.75.phi1.360.log	Energy: -505585.2866141
N          0.26145       -0.61081       -0.15535
C         -0.51708       -1.05188        2.19138
C          0.57362       -0.76666        1.17554
C         -1.01782       -1.03675       -0.76734
C         -1.26561       -2.53598       -0.59693
C         -2.19386       -0.12192       -0.43337
C         -3.49038       -0.61721       -0.24964
C         -4.55629        0.23999       -0.01543
C         -4.35483        1.61808        0.03863
C         -3.07527        2.12325       -0.14563
C         -2.00590        1.25870       -0.38021
C          1.28891       -0.33881       -1.13497
O          1.71795       -0.62205        1.58231
C          2.76334       -0.21974       -0.68838
C          4.64522        1.05609        0.07945
C          2.40933        2.03164        0.27890
N          3.24609        1.00630       -0.32324
O          3.49392       -1.17837       -0.87932
H         -1.52264       -0.88735        1.84470
H         -0.31869       -0.41361        3.04154
H         -0.41224       -2.07851        2.52473
H          1.32434       -1.15687       -1.84176
H          1.01668        0.55444       -1.68853
H         -0.84972       -0.89221       -1.82696
H         -3.67799       -1.67343       -0.28327
H         -5.54197       -0.16551        0.12668
H         -5.18127        2.28061        0.22172
H         -2.90159        3.18373       -0.10777
H         -1.02276        1.66859       -0.51627
H         -1.56861       -2.80364        0.40719
H         -0.35541       -3.07589       -0.83120
H         -2.03505       -2.87562       -1.28061
H          4.98906        2.08139        0.01115
H          2.41200        1.95549        1.36068
H          5.23355        0.43675       -0.57656
H          1.38927        1.94932       -0.06190
H          4.77274        0.70675        1.10023
H          2.78224        3.00771       -0.00957
