38
../min.omega.180.chi1.300.phi1.30.log	Energy: -502027.0678812
N          0.36511        0.95573        0.33788
C         -1.42849        1.85372        1.22685
C         -0.44618        2.03777        0.08488
C         -0.38977        0.04079       -0.54842
C          0.47578       -0.91807       -1.36667
C         -1.86305       -0.19689       -0.22523
C         -3.02525        0.54874        0.00576
C         -4.27129       -0.02199        0.22361
C         -4.44547       -1.40482        0.21321
C         -3.32789       -2.18688       -0.04334
C         -2.09489       -1.57141       -0.26005
C          1.30933       -0.13125        0.46527
O         -1.38141        2.26131       -0.67091
C          2.70321        0.27159       -0.06614
C          5.08316       -0.19134       -0.21941
C          3.67359       -1.74475        1.07216
N          3.75636       -0.52972        0.27787
O          2.84194        1.27635       -0.74464
H         -1.68159        0.78542        1.43373
H         -2.36774        2.39884        1.07715
H         -0.99292        2.29446        2.17974
H          1.88089        0.16202        1.39003
H          0.68563       -0.96055        0.71122
H         -0.87297        0.80842       -1.16011
H         -2.99382        1.62745       -0.02379
H         -5.12961        0.62684        0.38785
H         -5.42375       -1.85256        0.37935
H         -3.40956       -3.27094       -0.08214
H         -1.25032       -2.22412       -0.47008
H          0.92543       -1.83436       -1.01677
H          1.28483       -0.36093       -1.80404
H         -0.17214       -1.26238       -2.19760
H          5.76347       -0.02405        0.62644
H          3.91352       -2.63740        0.45561
H          5.03468        0.72447       -0.81704
H          2.68510       -1.89422        1.52042
H          5.47637       -1.01692       -0.84790
H          4.39323       -1.68417        1.89718
