38
../min.omega.0.chi1.330.phi1.0.log	Energy: -505576.6569401
N         -0.27308        0.23085       -0.20631
C         -1.33460       -2.05247        0.05156
C         -0.18317       -1.13721       -0.32180
C          0.93336        1.04400       -0.48157
C          0.94134        2.40995        0.20562
C          2.27552        0.38116       -0.18031
C          3.26772        0.34237       -1.16727
C          4.53932       -0.13082       -0.87582
C          4.84853       -0.57339        0.40916
C          3.87426       -0.53221        1.39684
C          2.59854       -0.04827        1.10636
C         -1.40384        1.00081        0.26045
O          0.80016       -1.65386       -0.83365
C         -2.71936        0.32586        0.70925
C         -5.00907       -0.33116        0.21221
C         -3.51974        0.26080       -1.65990
N         -3.70578        0.15382       -0.22185
O         -2.88897        0.09043        1.89456
H         -1.70145       -1.89684        1.05501
H         -0.94846       -3.05597       -0.04044
H         -2.15697       -1.93936       -0.64263
H         -1.13095        1.53929        1.15292
H         -1.65686        1.73751       -0.49260
H          0.92796        1.23760       -1.55129
H          3.03740        0.66767       -2.16653
H          5.28668       -0.16008       -1.64881
H          5.83300       -0.94396        0.63206
H          4.09998       -0.87079        2.39250
H          1.85434       -0.02434        1.88365
H          0.95181        2.32586        1.28617
H          0.11512        3.04603       -0.08674
H          1.85401        2.91330       -0.08734
H         -5.78483        0.21056       -0.31729
H         -2.47814        0.36716       -1.91764
H         -5.11660       -0.17175        1.27118
H         -4.06999        1.10698       -2.05956
H         -5.11988       -1.39078       -0.00091
H         -3.88662       -0.63998       -2.14059
