38
../min.omega.0.chi1.240.phi1.90.log	Energy: -505594.6027653
N          1.61097       -0.20989        0.31646
C          3.47973        0.98783       -0.80202
C          2.76032       -0.29690       -0.43483
C          0.92432       -1.46280        0.70532
C          1.07302       -1.73519        2.20259
C         -0.50336       -1.52311        0.16720
C         -0.69384       -1.60590       -1.21733
C         -1.96955       -1.68465       -1.75784
C         -3.08629       -1.68286       -0.92385
C         -2.91235       -1.60316        0.45086
C         -1.62845       -1.52554        0.99087
C          1.06064        1.04747        0.76977
O          3.21110       -1.37602       -0.79278
C          0.05945        1.66200       -0.23400
C         -1.96507        2.91696       -0.68213
C         -1.32190        2.49329        1.66411
N         -0.96708        2.42077        0.25595
O          0.25972        1.52502       -1.42995
H          2.81499        1.68011       -1.29987
H          4.29238        0.72130       -1.46051
H          3.89146        1.46583        0.08180
H          0.59897        0.88228        1.72860
H          1.84000        1.78085        0.92642
H          1.47988       -2.23079        0.19559
H          0.16233       -1.59547       -1.86659
H         -2.09311       -1.74625       -2.82402
H         -4.07479       -1.74718       -1.34248
H         -3.76605       -1.60895        1.10530
H         -1.52028       -1.48151        2.05898
H          0.59117       -0.99279        2.83003
H          2.12636       -1.75432        2.45668
H          0.64787       -2.70137        2.45170
H         -2.86470        2.30913       -0.64567
H         -1.99460        3.32906        1.79904
H         -1.56051        2.88560       -1.67831
H         -0.45670        2.67773        2.28581
H         -2.22304        3.93898       -0.42916
H         -1.82563        1.59495        2.00927
