38
../min.omega.0.chi1.60.phi1.180.log	Energy: -505586.7345257
N          0.37314        1.21217       -0.05957
C          0.42998        3.21815       -1.52744
C         -0.32689        2.24026       -0.64780
C         -0.29803        0.34837        0.93837
C         -0.54195        1.11637        2.23791
C         -1.52234       -0.39854        0.41426
C         -1.32455       -1.65580       -0.16903
C         -2.38815       -2.42457       -0.62020
C         -3.69198       -1.95234       -0.47997
C         -3.90679       -0.71601        0.11315
C         -2.83283        0.05606        0.55649
C          1.79345        1.11813       -0.31094
O         -1.51629        2.42610       -0.43185
C          2.50134       -0.06446        0.38759
C          3.40982       -2.31798        0.28972
C          2.17145       -1.44828       -1.65966
N          2.60188       -1.25067       -0.28499
O          2.96179        0.10381        1.50510
H          1.21619        3.71500       -0.97006
H         -0.28185        3.95310       -1.87032
H          0.88292        2.73626       -2.38687
H          1.99099        1.08528       -1.37231
H          2.31447        1.97866        0.08948
H          0.41606       -0.42076        1.17590
H         -0.32511       -2.04471       -0.25449
H         -2.20556       -3.38727       -1.06403
H         -4.52283       -2.54343       -0.82188
H         -4.90818       -0.34189        0.23054
H         -3.02388        1.01594        0.98966
H         -1.19522        1.96436        2.08749
H          0.40603        1.47186        2.62630
H         -0.98808        0.46247        2.97972
H          2.85697       -3.25021        0.26272
H          2.94944       -1.18203       -2.37099
H          3.64916       -2.07259        1.30949
H          1.27789       -0.88495       -1.87865
H          4.33042       -2.44572       -0.27301
H          1.93575       -2.49543       -1.79742
