38
../min.omega.0.chi1.270.phi1.90.log	Energy: -505592.1255480
N         -0.19000        1.51712        0.42415
C         -0.99266        3.04088       -1.37377
C          0.10332        2.53458       -0.45433
C          0.92030        0.95906        1.22932
C          0.50951        0.69210        2.67780
C          1.62913       -0.21121        0.55143
C          2.62182        0.05644       -0.39881
C          3.29775       -0.97681       -1.03232
C          2.99968       -2.30397       -0.72827
C          2.02037       -2.58331        0.21478
C          1.34290       -1.54270        0.85054
C         -1.50517        0.92153        0.49434
O          1.21614        3.03981       -0.50143
C         -1.67805       -0.28463       -0.45585
C         -2.69476       -2.38945       -1.03378
C         -3.62279       -1.13808        0.85891
N         -2.53598       -1.28646       -0.09549
O         -1.05324       -0.31721       -1.50356
H         -1.41061        2.23337       -1.95955
H         -0.54422        3.77213       -2.02875
H         -1.78873        3.52042       -0.81253
H         -1.69066        0.63483        1.51503
H         -2.26411        1.64836        0.24072
H          1.63319        1.76473        1.26564
H          2.85184        1.07652       -0.64262
H          4.05664       -0.74892       -1.75948
H          3.52589       -3.10395       -1.21790
H          1.78277       -3.60293        0.46212
H          0.59271       -1.78979        1.57943
H         -0.18009       -0.13412        2.80173
H          0.05370        1.58001        3.10333
H          1.39597        0.45690        3.25556
H         -3.02050       -3.26572       -0.48645
H         -4.56626       -0.95528        0.34997
H         -1.75210       -2.59396       -1.51234
H         -3.44981       -0.32568        1.54548
H         -3.43290       -2.16052       -1.79788
H         -3.72218       -2.04854        1.43784
