38
../min.omega.0.chi1.225.phi1.330.log	Energy: -505588.8587388
N         -0.17841        0.99891       -0.09073
C         -2.28713        1.71174       -1.27013
C         -0.86187        1.95328       -0.80841
C          1.16528        1.37888        0.40182
C          1.08604        1.88523        1.84247
C          2.17507        0.26131        0.15111
C          2.50772       -0.04910       -1.17292
C          3.42634       -1.04676       -1.46720
C          4.03974       -1.75793       -0.43733
C          3.72403       -1.45741        0.88041
C          2.79834       -0.45536        1.17199
C         -0.64111       -0.30499        0.32766
O         -0.34198        3.02956       -1.06765
C         -2.15341       -0.46778        0.59973
C         -4.17233       -1.80925        0.42909
C         -2.22395       -2.41567       -0.96869
N         -2.80476       -1.52026        0.01870
O         -2.69500        0.28412        1.39377
H         -2.46461        0.70492       -1.62579
H         -2.47328        2.40981       -2.07281
H         -2.96697        1.91230       -0.45408
H         -0.27401       -1.06084       -0.34990
H         -0.20088       -0.52225        1.29118
H          1.46186        2.21119       -0.21149
H          2.04439        0.50198       -1.97291
H          3.66979       -1.26449       -2.49192
H          4.75519       -2.52853       -0.66195
H          4.19447       -1.99565        1.68392
H          2.57592       -0.23868        2.20017
H          0.69996        1.14197        2.53188
H          0.42440        2.74160        1.87485
H          2.06448        2.19708        2.19268
H         -4.85312       -1.68369       -0.40687
H         -1.55492       -3.14540       -0.52326
H         -4.45451       -1.13686        1.21975
H         -1.69134       -1.87712       -1.74049
H         -4.24464       -2.83250        0.78324
H         -3.03070       -2.95204       -1.44858
