38
../min.omega.180.chi1.195.phi1.150.log	Energy: -499765.5754686
N          1.99733        0.05929        0.13439
C          3.60002       -0.43849        1.13858
C          2.94939       -0.89069       -0.15567
C          0.99680        1.10239        0.45591
C          0.88243        2.09701       -0.69985
C         -0.43081        0.56860        0.54805
C         -0.84641       -0.26328        1.59462
C         -2.16540       -0.68651        1.67791
C         -3.10884       -0.30273        0.72645
C         -2.72449        0.51041       -0.33068
C         -1.39443        0.92628       -0.39416
C          1.07281       -0.04262       -0.97205
O          4.15099       -0.82154       -0.37293
C         -0.34412        0.34118       -0.48979
C         -2.61956       -0.73229       -0.31954
C         -0.77211       -1.89651       -1.38393
N         -1.22237       -0.67925       -0.72849
O         -0.49814        1.45101       -0.00637
H          3.59019        0.74549        1.28977
H          4.64631       -0.75202        1.06149
H          3.11547       -0.96420        2.08823
H          1.46376       -0.73289       -1.74398
H          0.26067       -0.38064       -0.31717
H          1.40750        1.65391        1.30555
H         -0.12677       -0.55766        2.36020
H         -2.47076       -1.31886        2.51090
H         -4.14371       -0.63888        0.81176
H         -3.44397        0.82791       -1.08607
H         -1.12262        1.58481       -1.22124
H          0.52429        1.63941       -1.62740
H          1.86475        2.52904       -0.90430
H          0.19085        2.90342       -0.43646
H         -3.28279       -0.83104       -1.22402
H         -0.80402       -2.77533       -0.64799
H         -2.95461        0.17924        0.26740
H          0.28174       -1.83060       -1.80610
H         -2.75433       -1.64190        0.38162
H         -1.46125       -2.09198       -2.24418
