38
../min.omega.0.chi1.165.phi1.240.log	Energy: -505583.0173165
N         -1.66842       -0.03191        0.15043
C         -3.69676        1.42517        0.28987
C         -3.03009        0.09347       -0.00173
C         -1.07056       -1.35798        0.42718
C         -1.67136       -2.53555       -0.34125
C          0.44027       -1.39231        0.20870
C          1.28812       -1.60029        1.30321
C          2.65718       -1.75312        1.13553
C          3.20986       -1.70200       -0.14298
C          2.38123       -1.49997       -1.23796
C          1.00494       -1.35119       -1.06555
C         -0.89918        1.11157        0.58636
O         -3.75686       -0.84388       -0.30012
C          0.18564        1.55599       -0.42024
C          2.35002        2.56949       -0.84984
C          1.61315        2.28787        1.49218
N          1.29634        2.17918        0.07731
O         -0.02941        1.44872       -1.61665
H         -3.56691        1.70548        1.33007
H         -4.74875        1.29008        0.09276
H         -3.32347        2.22957       -0.33334
H         -1.52685        1.97480        0.72024
H         -0.46188        0.89599        1.55254
H         -1.22794       -1.54828        1.48756
H          0.86956       -1.65762        2.29350
H          3.28751       -1.91959        1.99100
H          4.26959       -1.82402       -0.27936
H          2.79635       -1.46011       -2.22899
H          0.38154       -1.17870       -1.92081
H         -1.71770       -2.33057       -1.40301
H         -2.66256       -2.78306       -0.00761
H         -1.02350       -3.39177       -0.18740
H          2.63424        3.60074       -0.67002
H          1.97297        1.35245        1.90742
H          1.98696        2.47021       -1.85741
H          0.76413        2.63019        2.06863
H          3.22418        1.93868       -0.72077
H          2.39252        3.02918        1.60413
