38
../min.omega.180.chi1.180.phi1.0.log	Energy: -505580.7499622
N         -0.27175        0.88774       -0.42623
C         -1.26589        3.19911       -0.44107
C         -1.38920        1.68754       -0.49432
C          1.02426        1.41116        0.06254
C          0.91375        2.03333        1.45495
C          2.12410        0.35203        0.05276
C          2.79685        0.11330       -1.15159
C          3.82416       -0.81597       -1.23468
C          4.20960       -1.52934       -0.10102
C          3.55799       -1.29868        1.10256
C          2.52531       -0.36400        1.17997
C         -0.42618       -0.54843       -0.47986
O         -2.51272        1.22187       -0.62360
C         -1.83405       -1.17127       -0.61227
C         -3.86033       -2.04119        0.33349
C         -2.40238       -0.67744        1.74825
N         -2.54336       -1.44814        0.52342
O         -2.16896       -1.60523       -1.70253
H         -1.62793        3.54521        0.51916
H         -1.93770        3.58342       -1.19647
H         -0.27587        3.59253       -0.61357
H          0.09397       -0.92883       -1.34548
H          0.03455       -0.99476        0.38927
H          1.34459        2.18005       -0.62819
H          2.50687        0.65933       -2.03257
H          4.32229       -0.98089       -2.17288
H          5.00598       -2.24908       -0.15782
H          3.84752       -1.83985        1.98530
H          2.04577       -0.21131        2.12787
H          0.49984        1.33179        2.16980
H          0.28519        2.90990        1.46574
H          1.89437        2.33378        1.80613
H         -4.16447       -2.51477        1.25956
H         -3.08051        0.16927        1.76473
H         -3.81508       -2.78010       -0.44853
H         -1.39429       -0.30990        1.86062
H         -4.59568       -1.28842        0.06267
H         -2.61813       -1.31867        2.59503
