38
../min.omega.180.chi1.195.phi1.90.log	Energy: -505592.4446065
N         -0.37504        1.29366       -0.04391
C         -0.75902        3.54069       -1.04347
C         -1.25289        2.32685       -0.27824
C          1.07603        1.55813        0.08617
C          1.38050        2.34389        1.36210
C          1.88280        0.26677       -0.02805
C          1.75327       -0.49621       -1.19472
C          2.49388       -1.65590       -1.37477
C          3.38723       -2.07800       -0.39172
C          3.52592       -1.32945        0.76882
C          2.77964       -0.16464        0.94859
C         -0.94691        0.18876        0.69193
O         -2.42780        2.25079        0.05290
C         -1.56797       -0.86173       -0.25587
C         -2.91086       -2.86407       -0.51084
C         -2.52243       -1.96962        1.75226
N         -2.18891       -1.92551        0.33774
O         -1.47979       -0.75396       -1.46821
H         -0.02114        4.11066       -0.49311
H         -1.61529        4.16938       -1.23506
H         -0.31778        3.23738       -1.98636
H         -0.17568       -0.29938        1.27039
H         -1.70438        0.54817        1.37069
H          1.35351        2.16959       -0.76129
H          1.04623       -0.19451       -1.94399
H          2.37288       -2.22861       -2.27653
H          3.96277       -2.97560       -0.53054
H          4.21146       -1.64263        1.53594
H          2.91513        0.39230        1.85560
H          1.12855        1.77332        2.24967
H          0.80572        3.26088        1.39553
H          2.43002        2.61157        1.41612
H         -2.79081       -3.86716       -0.11784
H         -3.44006       -1.43049        1.97518
H         -2.51178       -2.81913       -1.50896
H         -1.72600       -1.56792        2.36062
H         -3.97163       -2.62833       -0.54387
H         -2.65845       -3.00396        2.04024
