38
../min.omega.0.chi1.180.phi1.210.log	Energy: -505578.5944678
N         -1.73292        0.01197        0.12957
C         -3.86104        1.32162        0.25090
C         -3.10744        0.00584        0.19018
C         -1.07705       -1.31265        0.21734
C         -1.58309       -2.26546       -0.86627
C          0.44843       -1.31673        0.15104
C          1.15371       -1.39853        1.35766
C          2.53408       -1.53737        1.39083
C          3.24836       -1.60758        0.19603
C          2.56562       -1.53595       -1.01027
C          1.17777       -1.39705       -1.03466
C         -1.09346        1.30827        0.12834
O         -3.75295       -1.02497        0.31897
C          0.25646        1.47615       -0.60454
C          2.48595        2.43036       -0.68142
C          1.43891        2.13177        1.51958
N          1.31186        2.01743        0.07569
O          0.27854        1.29525       -1.81116
H         -3.50785        1.94976        1.06060
H         -4.89722        1.07324        0.42007
H         -3.78439        1.88628       -0.67205
H         -1.70594        1.99529       -0.42924
H         -1.02678        1.69824        1.13636
H         -1.35323       -1.72580        1.17956
H          0.60822       -1.37432        2.28579
H          3.04560       -1.60826        2.33426
H          4.31723       -1.72624        0.20904
H          3.10397       -1.59221       -1.93922
H          0.68284       -1.33100       -1.98154
H         -1.48718       -1.81076       -1.84617
H         -2.61203       -2.53456       -0.71782
H         -0.98317       -3.16855       -0.85286
H          2.80944        3.40611       -0.33386
H          2.44762        1.85681        1.80131
H          2.23746        2.48547       -1.72679
H          0.77234        1.46266        2.03615
H          3.29792        1.72434       -0.54480
H          1.25458        3.14937        1.85333
