38
../min.omega.180.chi1.210.phi1.300.log	Energy: -505595.0842702
N         -0.15082        0.90839       -0.23745
C         -0.62582        3.35465       -0.43678
C         -1.03873        1.90155       -0.58133
C          1.04992        1.15895        0.59197
C          0.73357        1.20200        2.08736
C          2.16254        0.18287        0.21669
C          2.67806        0.22721       -1.08420
C          3.70336       -0.61979       -1.48064
C          4.24003       -1.53572       -0.57748
C          3.73988       -1.58978        0.71610
C          2.70954       -0.73634        1.11118
C         -0.66221       -0.43116       -0.42016
O         -2.12213        1.61570       -1.07163
C         -1.92697       -0.70443        0.42440
C         -4.10198       -1.70799        0.68606
C         -3.03247       -1.71563       -1.54424
N         -2.90158       -1.49909       -0.11245
O         -1.97964       -0.29165        1.57157
H         -0.41281        3.61793        0.59187
H         -1.44594        3.95824       -0.79477
H          0.25749        3.56393       -1.03035
H         -0.83818       -0.59577       -1.46944
H          0.08389       -1.14159       -0.09483
H          1.40703        2.13766        0.30443
H          2.26648        0.92785       -1.78955
H          4.08394       -0.56571       -2.48494
H          5.03514       -2.19314       -0.88001
H          4.14577       -2.29166        1.42241
H          2.34346       -0.79984        2.11774
H          0.34483        0.26075        2.44647
H         -0.02705        1.94626        2.28550
H          1.62424        1.46539        2.64944
H         -4.84947       -0.94529        0.48459
H         -3.89978       -2.33857       -1.71188
H         -3.84626       -1.67405        1.73098
H         -2.17757       -2.24365       -1.94778
H         -4.51995       -2.67917        0.45025
H         -3.16665       -0.78538       -2.08386
