38
../min.omega.180.chi1.105.phi1.330.log	Energy: -505586.1924159
N         -0.21063        0.78985       -0.18639
C         -0.16362        2.50440        1.66605
C         -0.85957        1.44020        0.83778
C          1.11658        1.06744       -0.78132
C          1.62267        2.50879       -0.71427
C          2.17147        0.05438       -0.34265
C          3.36954       -0.03433       -1.06155
C          4.36353       -0.92775       -0.68793
C          4.17646       -1.75990        0.41442
C          2.98541       -1.69250        1.12386
C          1.98688       -0.79340        0.74889
C         -0.93211       -0.21362       -0.93594
O         -2.03961        1.21178        1.06400
C         -2.02507       -0.96954       -0.14752
C         -4.26244       -1.75368        0.14930
C         -3.91782        0.27699       -1.15185
N         -3.31950       -0.92097       -0.58531
O         -1.65812       -1.74251        0.72255
H          0.84388        2.23232        1.94726
H         -0.76187        2.63439        2.55546
H         -0.14039        3.44263        1.12804
H         -1.31664        0.21340       -1.85398
H         -0.23464       -0.99335       -1.20860
H          0.95138        0.89464       -1.83993
H          3.52730        0.59141       -1.92317
H          5.27569       -0.97937       -1.25521
H          4.94360       -2.45505        0.70457
H          2.82026       -2.34151        1.96487
H          1.05840       -0.78675        1.28643
H          2.03041        2.78096        0.24693
H          0.83993        3.20795       -0.98568
H          2.41930        2.61869       -1.43955
H         -4.53756       -1.29913        1.09693
H         -4.69642       -0.01444       -1.84727
H         -3.82381       -2.71827        0.34365
H         -3.19475        0.87015       -1.68593
H         -5.15362       -1.87896       -0.45383
H         -4.34917        0.89905       -0.37501
