38
../min.omega.0.chi1.270.phi1.270.log	Energy: -505595.0207180
N         -0.11947        0.86921        0.10363
C         -0.78454        2.73826       -1.39372
C          0.04509        2.18923       -0.24778
C          0.78570        0.29479        1.12499
C          0.04406       -0.62599        2.09466
C          2.03489       -0.30648        0.48506
C          3.09347        0.53835        0.13050
C          4.23710        0.03254       -0.47121
C          4.35201       -1.33173       -0.73239
C          3.31266       -2.18163       -0.38048
C          2.16517       -1.67038        0.22609
C         -1.04935       -0.00204       -0.57868
O          0.85869        2.90851        0.31484
C         -2.46103        0.00160        0.04959
C         -4.64283       -1.05449        0.25209
C         -2.96045       -2.07199       -1.23906
N         -3.33278       -0.96102       -0.37816
O         -2.77736        0.86471        0.85217
H         -0.48236        2.28576       -2.33302
H         -0.59806        3.80009       -1.44422
H         -1.84264        2.56446       -1.24470
H         -1.14874        0.27503       -1.61961
H         -0.64129       -1.00202       -0.57937
H          1.10877        1.14649        1.69918
H          3.00993        1.59109        0.32422
H          5.03966        0.69927       -0.73217
H          5.24016       -1.72274       -1.19580
H          3.39086       -3.23801       -0.56771
H          1.38405       -2.35401        0.50531
H         -0.36468       -1.51644        1.62935
H         -0.77214       -0.08474        2.55479
H          0.72801       -0.95293        2.86990
H         -5.40822       -1.15052       -0.50998
H         -2.55261       -2.90892       -0.67702
H         -4.82158       -0.16468        0.82971
H         -2.24434       -1.77383       -1.99021
H         -4.69511       -1.92096        0.90582
H         -3.84629       -2.41569       -1.75681
