38
../min.omega.0.chi1.345.phi1.60.log	Energy: -498160.4557448
N         -0.14245        0.52195       -0.44995
C          0.49823       -1.71844       -1.25256
C          0.86323       -0.40799       -0.57985
C          0.55052        1.79275       -0.13792
C         -0.61940        2.72810       -0.44543
C          1.71968        0.86056        0.17128
C          2.08084       -0.09827       -0.78282
C          3.13876       -0.96831       -0.55999
C          3.86279       -0.89661        0.62883
C          3.51985        0.05263        1.58161
C          2.45620        0.92594        1.35346
C         -1.54151        0.61840       -0.80019
O          2.01482       -0.18455       -0.23371
C         -2.19066       -0.57611       -0.06574
C         -4.12677       -1.45360        1.08031
C         -4.19883        0.87993        0.19112
N         -3.46008       -0.35615        0.39228
O         -1.62545       -1.64066        0.12524
H         -0.26747       -2.27090       -0.66292
H          1.42354       -2.31711       -1.30916
H          0.10405       -1.55686       -2.27818
H         -1.94237        0.27217        0.17284
H         -1.77457        1.61645       -1.25457
H          1.46074        1.58030       -0.70774
H          1.51869       -0.15569       -1.72541
H          3.40830       -1.70910       -1.32663
H          4.70115       -1.58157        0.80658
H          4.08663        0.12413        2.51991
H          2.21009        1.67558        2.11730
H         -1.38843        2.72389        0.33655
H         -1.09577        2.41650       -1.37577
H         -0.25987        3.75794       -0.55885
H         -4.38173       -1.12390        2.13606
H         -5.08869        0.70052       -0.52566
H         -3.46671       -2.37108        1.16222
H         -3.58900        1.73886       -0.23861
H         -5.07135       -1.74401        0.49102
H         -4.56208        1.23133        1.19987
