38
../min.omega.180.chi1.240.phi1.60.log	Energy: -505594.1032590
N         -0.20586        0.94985        0.00162
C         -0.08701        2.55833       -1.91001
C         -0.87451        1.69208       -0.94442
C          1.17353        1.26713        0.43649
C          1.18005        1.76789        1.88124
C          2.17376        0.14114        0.18512
C          1.82150       -1.03907       -0.48052
C          2.77158       -2.02223       -0.71830
C          4.09349       -1.85020       -0.31138
C          4.45581       -0.67687        0.33550
C          3.50025        0.30949        0.58054
C         -1.05789        0.16410        0.86530
O         -2.09434        1.63947       -1.01577
C         -1.90670       -0.85469        0.07210
C         -3.97207       -2.04014       -0.27701
C         -3.93920       -0.11061        1.27231
N         -3.18955       -1.07909        0.48865
O         -1.38960       -1.50554       -0.82129
H          0.23169        3.47716       -1.42846
H         -0.74965        2.81061       -2.72422
H          0.78678        2.04729       -2.29402
H         -0.43085       -0.43588        1.51172
H         -1.66817        0.80188        1.48514
H          1.48775        2.09997       -0.17328
H          0.81220       -1.19108       -0.80777
H          2.47835       -2.92401       -1.22551
H          4.82494       -2.61537       -0.50069
H          5.47272       -0.52086        0.64901
H          3.81170        1.21309        1.07347
H          0.97846        0.97513        2.59150
H          0.43471        2.54599        2.01037
H          2.14307        2.19126        2.13614
H         -4.70951       -2.49326        0.37404
H         -3.96503        0.86107        0.79476
H         -3.32109       -2.80505       -0.66390
H         -3.53887       -0.00897        2.27397
H         -4.48204       -1.56285       -1.10929
H         -4.95337       -0.47088        1.36994
