38
../min.omega.0.chi1.180.phi1.240.log	Energy: -505587.1266131
N          1.66905       -0.11576       -0.29889
C          3.72576        1.28124       -0.58691
C          3.04167       -0.03201       -0.25484
C          1.05747       -1.43276       -0.00911
C          1.50106       -1.98438        1.34627
C         -0.46771       -1.42730       -0.08188
C         -1.06567       -1.64699       -1.32857
C         -2.44256       -1.73902       -1.47519
C         -3.26499       -1.62243       -0.35597
C         -2.68976       -1.41646        0.89026
C         -1.30482       -1.32193        1.02827
C          0.87389        1.03643       -0.65872
O          3.74223       -1.01476       -0.05671
C         -0.11741        1.48154        0.43981
C         -2.19203        2.58354        1.05461
C         -1.61927        2.36945       -1.34047
N         -1.21707        2.19204        0.04546
O          0.15621        1.28687        1.61301
H          3.52938        1.57395       -1.61297
H          4.78556        1.11561       -0.46984
H          3.41926        2.08915        0.06762
H          1.50859        1.88528       -0.84603
H          0.34442        0.83406       -1.57898
H          1.40927       -2.11031       -0.77760
H         -0.43811       -1.76397       -2.19591
H         -2.86947       -1.91686       -2.44622
H         -4.33277       -1.70255       -0.45575
H         -3.31166       -1.33385        1.76372
H         -0.89326       -1.14946        2.00124
H          1.32266       -1.25646        2.12816
H          2.54703       -2.23279        1.34306
H          0.93432       -2.88204        1.57035
H         -2.45827        3.62607        0.91975
H         -2.05970        1.47088       -1.75998
H         -1.76202        2.44902        2.03144
H         -0.79044        2.68215       -1.96113
H         -3.09117        1.98020        0.97355
H         -2.35874        3.15771       -1.37622
