38
../min.omega.180.chi1.135.phi1.60.log	Energy: -505590.0840338
N          0.14562        0.69862       -0.20128
C          0.44237        3.20148       -0.48831
C          0.92607        1.76611       -0.58125
C         -0.90534        0.62548        0.83921
C         -1.33672        1.92048        1.52842
C         -2.12750       -0.11195        0.29697
C         -2.79059       -1.04256        1.10588
C         -3.93402       -1.68907        0.65822
C         -4.43723       -1.41952       -0.61330
C         -3.78563       -0.50286       -1.42667
C         -2.63652        0.14656       -0.97517
C          0.82189       -0.56607       -0.38167
O          2.01045        1.55384       -1.10556
C          2.11964       -0.63302        0.45434
C          4.40839       -1.33095        0.74445
C          3.31481       -1.66548       -1.44721
N          3.17785       -1.34732       -0.03510
O          2.12412       -0.13031        1.56628
H         -0.60648        3.30724       -0.72280
H          1.03005        3.76292       -1.19946
H          0.62508        3.60771        0.49758
H          0.17431       -1.36516       -0.04766
H          1.01310       -0.71697       -1.42987
H         -0.47649        0.01948        1.62599
H         -2.40617       -1.26185        2.08746
H         -4.42771       -2.40345        1.29256
H         -5.32089       -1.92263       -0.96267
H         -4.16328       -0.29209       -2.41136
H         -2.13158        0.84323       -1.61913
H         -1.85868        2.60302        0.87250
H         -0.49833        2.42446        1.99084
H         -2.02680        1.64448        2.31721
H          4.93828       -2.26323        0.59054
H          3.39472       -0.77343       -2.05857
H          4.16793       -1.22514        1.78820
H          2.48783       -2.26747       -1.80046
H          5.05294       -0.50747        0.44854
H          4.21353       -2.25288       -1.57395
