38
../min.omega.180.chi1.120.phi1.60.log	Energy: -505590.5147488
N          0.14790        0.51598       -0.17277
C          0.15143        3.02316       -0.50468
C          0.79719        1.65290       -0.59566
C         -0.89180        0.38359        0.87318
C         -1.15954        1.59704        1.76423
C         -2.18743       -0.18149        0.29566
C         -2.99106       -1.00195        1.09633
C         -4.19675       -1.50150        0.62456
C         -4.62466       -1.19241       -0.66540
C         -3.83341       -0.38622       -1.47187
C         -2.62130        0.11423       -0.99608
C          0.94032       -0.68007       -0.34838
O          1.88550        1.55220       -1.14456
C          2.26115       -0.59530        0.44899
C          4.61960       -1.03118        0.68112
C          3.51276       -1.50742       -1.47752
N          3.37850       -1.19338       -0.06423
O          2.23817       -0.08228        1.55598
H         -0.91776        2.99600       -0.65841
H          0.61280        3.62784       -1.27173
H          0.35736        3.47827        0.45514
H          0.38372       -1.53229        0.01742
H          1.11760       -0.83349       -1.39901
H         -0.49162       -0.35559        1.55212
H         -2.66765       -1.25358        2.09223
H         -4.79707       -2.13316        1.25472
H         -5.55677       -1.58124       -1.03411
H         -4.15032       -0.14756       -2.47153
H         -2.01050        0.72017       -1.63877
H         -1.70141        2.38943        1.26916
H         -0.23429        1.98209        2.17492
H         -1.77326        1.26222        2.59251
H          5.24754       -1.89856        0.51727
H          3.47222       -0.61816       -2.09658
H          4.39672       -0.94506        1.73059
H          2.75176       -2.20451       -1.80333
H          5.15817       -0.14226        0.36359
H          4.46957       -1.98839       -1.62553
