38
../min.omega.180.chi1.105.phi1.90.log	Energy: -501445.1247977
N         -0.92549        1.34355       -1.05934
C         -1.20608        3.30450       -0.30468
C         -0.81621        1.92183        0.18431
C          0.48247        1.57736       -0.66505
C          0.58597        1.32238        0.83907
C          1.41322        0.45424       -0.21361
C          2.14645       -0.15123       -1.24114
C          3.04398       -1.18172       -0.99962
C          3.23970       -1.64520        0.30019
C          2.52808       -1.05500        1.33542
C          1.62955       -0.01891        1.08007
C         -0.54276        0.07908       -0.47287
O          0.04924        2.52809        0.80016
C         -1.83194       -0.63925       -0.01505
C         -3.02436       -2.72437        0.37565
C         -0.72177       -2.84778       -0.46888
N         -1.83483       -2.00579       -0.06120
O         -2.80205        0.00630        0.34730
H         -0.73183        3.56180       -1.31175
H         -0.81129        4.05022        0.46601
H         -2.35331        3.37804       -0.41612
H         -1.31513       -0.55053       -0.96504
H          0.49283       -0.04643       -0.68434
H          0.60821        2.62586       -0.94283
H          2.00759        0.20834       -2.26456
H          3.60112       -1.62262       -1.83005
H          3.94566       -2.45360        0.50096
H          2.67277       -1.39849        2.36305
H          1.10759        0.41672        1.93127
H          0.35893        0.28410        1.11579
H         -0.12101        1.95866        1.39265
H          1.59681        1.55456        1.18698
H         -3.41515       -3.35701       -0.43994
H         -0.32434       -3.41958        0.38284
H         -3.78895       -1.99788        0.67440
H          0.09479       -2.26488       -0.89258
H         -2.77875       -3.37282        1.22757
H         -1.05960       -3.56946       -1.23304
