38
../min.omega.180.chi1.90.phi1.360.log	Energy: -505584.4206234
N         -0.28123        0.82505       -0.16440
C          0.08362        1.84038        2.10535
C         -0.79982        1.19060        1.05644
C          1.06889        1.14227       -0.68308
C          1.54503        2.57571       -0.44503
C          2.12648        0.09643       -0.33776
C          3.30876        0.07188       -1.08720
C          4.30980       -0.85153       -0.82068
C          4.14989       -1.78162        0.20500
C          2.97834       -1.77566        0.94921
C          1.97419       -0.84584        0.67870
C         -1.11029        0.20529       -1.17329
O         -1.96963        0.97162        1.33829
C         -2.60589       -0.05552       -0.88568
C         -4.39283       -1.42454       -0.05111
C         -2.09141       -1.99740        0.56254
N         -2.97170       -1.24296       -0.31494
O         -3.42031        0.71683       -1.36457
H          1.10169        1.48176        2.10295
H         -0.37415        1.63052        3.06084
H          0.08870        2.91455        1.96440
H         -1.14740        0.85489       -2.03714
H         -0.64305       -0.72348       -1.48435
H          0.93938        1.07749       -1.75501
H          3.44591        0.77314       -1.89209
H          5.20715       -0.85062       -1.41304
H          4.92276       -2.49935        0.41228
H          2.83702       -2.49191        1.73870
H          1.07348       -0.87081        1.26078
H          1.95699        2.73879        0.53901
H          0.73299        3.27511       -0.61109
H          2.32754        2.80647       -1.15811
H         -4.59445       -2.48420        0.05171
H         -2.20454       -1.68772        1.59629
H         -4.96657       -1.02878       -0.87207
H         -1.05837       -1.87302        0.27737
H         -4.69042       -0.91704        0.86236
H         -2.33312       -3.05069        0.48151
