38
../min.omega.180.chi1.300.phi1.180.log	Energy: -505580.8449214
N         -0.30322        1.45821        0.25430
C          1.76705        2.86572        0.18866
C          0.45170        2.39919       -0.40725
C          0.42057        0.53507        1.15787
C         -0.47123       -0.30418        2.07355
C          1.49074       -0.32086        0.48435
C          1.59791       -0.47467       -0.90307
C          2.58949       -1.26846       -1.46204
C          3.50825       -1.92923       -0.64845
C          3.42538       -1.77344        0.72824
C          2.42653       -0.97455        1.28513
C         -1.51004        1.15747       -0.48222
O          0.04909        2.90993       -1.44306
C         -2.50173        0.12013        0.09054
C         -3.69400       -1.97388        0.00497
C         -1.75953       -1.71012       -1.47371
N         -2.67646       -1.08263       -0.53586
O         -3.21552        0.45437        1.02218
H          1.62494        3.22533        1.20204
H          2.11783        3.67840       -0.42915
H          2.51415        2.08471        0.20501
H         -2.09931        2.06070       -0.51784
H         -1.27297        0.92262       -1.50823
H          0.95034        1.19527        1.83170
H          0.92553        0.04413       -1.55842
H          2.65057       -1.36547       -2.53125
H          4.27705       -2.54198       -1.08304
H          4.13367       -2.26287        1.37243
H          2.39192       -0.85936        2.35421
H         -0.92972       -1.13926        1.56251
H         -1.24347        0.30018        2.52430
H          0.14686       -0.71732        2.86092
H         -4.10194       -2.57019       -0.80213
H         -1.13595       -2.45048       -0.98054
H         -4.47943       -1.39530        0.45896
H         -1.11867       -0.99018       -1.94864
H         -3.27568       -2.64380        0.75212
H         -2.33302       -2.20782       -2.24643
