38
../min.omega.0.chi1.15.phi1.150.log	Energy: -505583.4342783
N         -0.38694        0.61179        0.10774
C         -0.18013        3.07003        0.54925
C          0.24575        1.80212       -0.16763
C          0.34199       -0.67507        0.03603
C         -0.19754       -1.51620       -1.12135
C          1.86586       -0.58664       -0.00274
C          2.54644       -0.51633        1.21870
C          3.93288       -0.49963        1.27612
C          4.67575       -0.56753        0.09875
C          4.01606       -0.64579       -1.11990
C          2.62206       -0.65336       -1.17234
C         -1.45220        0.60599        1.08473
O          1.11826        1.87680       -1.02144
C         -2.53802       -0.46434        0.83377
C         -4.44619       -1.30023       -0.40692
C         -3.34447        0.74581       -1.20215
N         -3.45588       -0.26098       -0.15907
O         -2.57853       -1.43659        1.57015
H         -1.16283        3.40050        0.22838
H          0.53729        3.83095        0.28318
H         -0.19875        2.95069        1.62633
H         -1.08499        0.38515        2.08074
H         -1.93759        1.56681        1.11578
H          0.09474       -1.18917        0.95503
H          1.98314       -0.48384        2.13629
H          4.43039       -0.44649        2.22807
H          5.75047       -0.56181        0.13505
H          4.57857       -0.69385       -2.03511
H          2.13972       -0.68824       -2.12907
H         -0.07989       -0.99377       -2.06301
H         -1.24868       -1.73553       -0.98988
H          0.32975       -2.46173       -1.17968
H         -5.38893       -0.83558       -0.67148
H         -2.97328        0.31393       -2.12670
H         -4.57408       -1.89445        0.48108
H         -2.68037        1.54256       -0.91618
H         -4.13840       -1.94662       -1.22496
H         -4.32382        1.17015       -1.39015
