38
../min.omega.0.chi1.285.phi1.60.log	Energy: -505590.9376908
N         -0.18605        1.11453        0.22033
C         -1.39192        1.97897       -1.80317
C         -0.13275        1.78878       -0.97782
C          1.09728        1.02850        0.95392
C          0.91998        0.78672        2.45332
C          2.09286        0.02814        0.37115
C          3.46041        0.29760        0.50247
C          4.41342       -0.60915        0.06044
C          4.01565       -1.80752       -0.52974
C          2.66222       -2.07882       -0.67484
C          1.70355       -1.16964       -0.22719
C         -1.41284        0.56239        0.74894
O          0.92173        2.25800       -1.38249
C         -2.10865       -0.49619       -0.13584
C         -4.10721       -1.81411       -0.57537
C         -4.08344       -0.30958        1.37982
N         -3.35461       -0.89208        0.26467
O         -1.55831       -0.96962       -1.11673
H         -1.49877        1.14053       -2.47711
H         -1.25590        2.88218       -2.38000
H         -2.29760        2.06453       -1.21517
H         -1.20209        0.08383        1.69047
H         -2.12329        1.35323        0.96505
H          1.54121        2.00597        0.84310
H          3.77900        1.22813        0.94057
H          5.45909       -0.37972        0.16512
H          4.75161       -2.50968       -0.87903
H          2.34362       -2.99372       -1.14234
H          0.66393       -1.38379       -0.37976
H          0.60232       -0.22484        2.68218
H          0.21892        1.48963        2.89407
H          1.87897        0.92974        2.93628
H         -4.46237       -2.64766        0.02050
H         -4.62444        0.58862        1.09286
H         -3.46877       -2.18185       -1.35899
H         -3.43186       -0.07516        2.20847
H         -4.96478       -1.31411       -1.01654
H         -4.80294       -1.03642        1.73243
