38
../min.omega.0.chi1.210.phi1.210.log	Energy: -505588.7298973
N          1.68950        0.01155       -0.05305
C          3.69562        1.15260       -1.00599
C          3.03086       -0.04562       -0.35386
C          1.09381       -1.27063        0.38700
C          1.40150       -1.54257        1.85992
C         -0.38352       -1.39923        0.02305
C         -0.71694       -1.56299       -1.32679
C         -2.02919       -1.76231       -1.73187
C         -3.04731       -1.81489       -0.78145
C         -2.73233       -1.66683        0.56216
C         -1.41199       -1.46092        0.96258
C          0.93824        1.20720       -0.36181
O          3.69038       -1.05541       -0.15087
C         -0.25034        1.49515        0.58261
C         -2.46666        2.42075        0.92083
C         -1.55780        2.31609       -1.37948
N         -1.34365        2.11542        0.04457
O         -0.13678        1.28402        1.77914
H          3.16781        1.47445       -1.89664
H          4.69718        0.85157       -1.27224
H          3.75506        1.99519       -0.32492
H          1.57345        2.07284       -0.24307
H          0.60608        1.18959       -1.39085
H          1.61001       -2.02603       -0.18596
H          0.06702       -1.55063       -2.06520
H         -2.25550       -1.89322       -2.77526
H         -4.06555       -1.97886       -1.08610
H         -3.50812       -1.71351        1.30553
H         -1.19674       -1.33446        2.00453
H          0.97178       -0.78675        2.50075
H          2.47317       -1.55128        1.99914
H          1.01914       -2.51809        2.14584
H         -2.78472        3.44543        0.76363
H         -1.68031        1.38066       -1.91255
H         -2.16055        2.29628        1.94431
H         -0.75525        2.88442       -1.83360
H         -3.30248        1.75925        0.71555
H         -2.46492        2.89071       -1.50108
