38
../min.omega.0.chi1.285.phi1.180.log	Energy: -505581.9211698
N         -0.27615        1.37068        0.16593
C         -0.27975        3.34202       -1.36716
C          0.40494        2.44994       -0.34819
C          0.48731        0.56312        1.14443
C         -0.34648       -0.16641        2.19833
C          1.55673       -0.32530        0.51312
C          2.88893        0.10206        0.46162
C          3.87898       -0.71176       -0.07064
C          3.56408       -1.97628       -0.56508
C          2.24975       -2.41893       -0.51029
C          1.25914       -1.59944        0.03118
C         -1.62276        1.17062       -0.31978
O          1.53862        2.73283        0.01319
C         -2.46816       -0.01447        0.19832
C         -3.33495       -2.24985       -0.06811
C         -1.76093       -1.38262       -1.75268
N         -2.38167       -1.21603       -0.44847
O         -3.24300        0.17286        1.12227
H         -0.49567        2.80799       -2.28625
H          0.40202        4.14963       -1.58418
H         -1.21020        3.75087       -0.99169
H         -2.23666        2.01349       -0.03469
H         -1.62597        1.12823       -1.39951
H          1.03138        1.31289        1.69586
H          3.14052        1.07877        0.82409
H          4.89516       -0.36084       -0.10043
H          4.33316       -2.60494       -0.97727
H          1.99272       -3.39842       -0.87361
H          0.25405       -1.97280        0.08841
H         -0.85543       -1.04632        1.83556
H         -1.07960        0.49440        2.64084
H          0.33724       -0.49019        2.97518
H         -4.24539       -2.18470       -0.65831
H         -0.84942       -0.81292       -1.83275
H         -3.58945       -2.14058        0.97200
H         -2.43423       -1.10272       -2.56007
H         -2.88517       -3.22147       -0.22983
H         -1.50039       -2.42470       -1.87958
