38
../min.omega.0.chi1.165.phi1.180.log	Energy: -505575.2421679
N          1.62520       -0.04723        0.09075
C          3.89445        1.00357       -0.23672
C          2.99365       -0.13603        0.20235
C          0.92415       -1.24060       -0.43547
C          1.43270       -2.60259        0.03831
C         -0.58338       -1.21167       -0.19458
C         -1.47865       -1.34200       -1.26301
C         -2.84110       -1.47386       -1.03466
C         -3.33746       -1.48389        0.26771
C         -2.46042       -1.36065        1.33636
C         -1.09092       -1.23212        1.10398
C          1.21798        1.21982       -0.47321
O          3.54376       -1.11921        0.67836
C         -0.26569        1.58203       -0.70797
C         -2.34884        2.54599        0.12020
C         -0.55068        2.05133        1.73073
N         -0.99602        2.05529        0.34664
O         -0.67836        1.59078       -1.85635
H          3.74074        1.27713       -1.27315
H          4.90690        0.65553       -0.10496
H          3.75508        1.89449        0.36491
H          1.63141        2.01384        0.12927
H          1.60840        1.33475       -1.47708
H          1.05379       -1.21586       -1.51739
H         -1.10945       -1.31762       -2.27161
H         -3.51410       -1.56558       -1.86805
H         -4.39330       -1.59039        0.44219
H         -2.83146       -1.37885        2.34592
H         -0.41676       -1.15764        1.93857
H          1.44588       -2.67500        1.11694
H          2.42015       -2.83059       -0.32483
H          0.74291       -3.34545       -0.34666
H         -3.07096        1.89214        0.59720
H         -0.37433        3.06526        2.08002
H         -2.54159        2.57984       -0.93783
H          0.35026        1.47269        1.85151
H         -2.45034        3.54273        0.53880
H         -1.31552        1.60365        2.35435
