38
../min.omega.0.chi1.0.phi1.210.log	Energy: -505579.7014673
N          0.24718        0.78553       -0.21396
C          0.32117        3.27336       -0.28991
C         -0.44244        1.96485       -0.37716
C         -0.41054       -0.52237        0.00807
C          0.10838       -1.18070        1.28691
C         -1.93663       -0.54118        0.05501
C         -2.62872       -1.14174       -1.00348
C         -4.00758       -1.29341       -0.96403
C         -4.72872       -0.85222        0.14410
C         -4.05457       -0.26182        1.20399
C         -2.66819       -0.11267        1.16202
C          1.66940        0.86058        0.03299
O         -1.63913        2.02031       -0.62354
C          2.48491       -0.34189       -0.49291
C          4.50534       -1.68861       -0.33509
C          4.22975        0.23831        1.19575
N          3.69093       -0.56617        0.11107
O          2.09349       -1.00655       -1.43851
H          0.93132        3.35246        0.60264
H         -0.41772        4.05964       -0.28784
H          0.96306        3.41045       -1.15427
H          2.08818        1.70979       -0.48528
H          1.87233        0.99923        1.08827
H         -0.12158       -1.14487       -0.82130
H         -2.08210       -1.48467       -1.86411
H         -4.51817       -1.75428       -1.79092
H         -5.79725       -0.96926        0.17732
H         -4.59931        0.08552        2.06400
H         -2.17246        0.36019        1.99030
H         -0.07844       -0.56380        2.15953
H          1.16762       -1.40262        1.25693
H         -0.40486       -2.12332        1.43069
H          5.44315       -1.33439       -0.75092
H          3.76935        0.00601        2.15149
H          3.96894       -2.23691       -1.08908
H          4.12660        1.29857        1.00506
H          4.72307       -2.34529        0.50102
H          5.28725        0.02906        1.27573
