38
../min.omega.180.chi1.270.phi1.60.log	Energy: -502046.0450608
N         -0.42634        1.19944       -0.27304
C          0.61910        2.75164       -1.31276
C          0.12146        2.41122        0.07984
C          0.57885        0.46566        0.52924
C         -0.10064       -0.36650        1.61732
C          1.95251       -0.07009        0.13233
C          3.24002        0.30034       -0.27405
C          4.28350       -0.59176       -0.47682
C          4.12373       -1.95929       -0.26007
C          2.88318       -2.37731        0.20114
C          1.86953       -1.43782        0.39059
C         -1.08068       -0.08797       -0.33393
O          1.17206        2.64534        0.66060
C         -2.55628        0.05114        0.10290
C         -4.83758       -0.79734        0.09634
C         -3.11222       -2.06449       -1.12154
N         -3.44454       -0.89960       -0.31740
O         -2.89307        1.00324        0.78790
H          0.85680        1.88177       -1.86404
H          1.45917        3.44274       -1.30627
H         -0.20137        3.24661       -1.89411
H         -1.79211        0.14506       -1.19565
H         -0.32954       -0.75833       -0.63856
H          1.06375        1.28305        1.05337
H          3.51613        1.29494       -0.37324
H          5.25036       -0.20991       -0.78054
H          4.93859       -2.65701       -0.40975
H          2.70111       -3.42268        0.41864
H          0.92503       -1.81861        0.76048
H         -0.57832       -1.31131        1.52646
H         -0.84980        0.25917        2.08603
H          0.68416       -0.57570        2.36473
H         -5.48373       -0.72686       -0.78484
H         -3.23531       -2.99309       -0.53957
H         -4.97501        0.09449        0.70520
H         -2.08971       -2.03340       -1.50038
H         -5.12583       -1.68464        0.68250
H         -3.77693       -2.10837       -1.98851
