38
../min.omega.180.chi1.120.phi1.210.log	Energy: -501150.2317227
N          2.01345        0.24100        0.44924
C          4.36372        0.02274        0.68468
C          3.05421       -0.64871        0.31424
C          0.95334        1.27475        0.45476
C          1.45775        2.02620       -0.77772
C         -0.53109        0.93130        0.35467
C         -1.10997        0.24090        1.42625
C         -2.28728       -0.48640        1.53008
C         -3.08887       -0.34099        0.39918
C         -2.57544        0.24089       -0.75157
C         -1.55054        1.16898       -0.56647
C          1.04433       -0.74503        0.02752
O          3.19631       -1.65198       -0.37068
C         -0.19861       -0.18113       -0.69683
C         -2.07777        0.47675        0.36936
C         -1.67206       -2.01045       -0.65945
N         -1.47211       -0.59124       -0.41470
O         -0.01700        0.05320       -1.88058
H          4.44847        0.91949        0.07571
H          5.18086       -0.64544        0.45605
H          4.41688        0.32493        1.72854
H          1.31903       -1.75530       -0.14975
H          0.57309       -0.95574        0.98909
H          1.16117        1.99796        1.23268
H         -0.49125        0.16404        2.32351
H         -2.39257       -1.33790        2.29095
H         -4.16693       -0.44436        0.45254
H         -3.22841        0.40623       -1.59600
H         -1.52885        1.98625       -1.24648
H          1.45430        1.45141       -1.68033
H          2.47000        2.34408       -0.54267
H          0.89457        2.94925       -0.94878
H         -3.34780        1.71592        0.76481
H         -1.59429       -2.57770        0.26050
H         -2.58847        1.39196        1.03965
H         -0.90085       -2.32487       -1.35068
H         -2.95150       -0.01311        2.11462
H         -2.64183       -2.17395       -1.09788
