38
../min.omega.0.chi1.345.phi1.300.log	Energy: -505581.6776371
N          0.22775        0.30098       -0.77019
C          1.15288       -1.88429       -1.60239
C         -0.00395       -0.96542       -1.25552
C         -0.71371        0.99443        0.13824
C         -0.81673        2.47412       -0.23331
C         -2.12611        0.42836        0.26555
C         -2.45790       -0.27658        1.42874
C         -3.75256       -0.72408        1.65103
C         -4.75003       -0.46917        0.71150
C         -4.43472        0.22993       -0.44533
C         -3.13252        0.67870       -0.66652
C          1.59248        0.74399       -0.59531
O         -1.13233       -1.40290       -1.43223
C          2.42747       -0.11275        0.38262
C          4.56287       -0.69537        1.35443
C          4.47523        1.16924       -0.23743
N          3.78617        0.03952        0.36505
O          1.87169       -0.88924        1.14244
H          2.06949       -1.39607       -1.90451
H          0.81305       -2.52260       -2.40483
H          1.36036       -2.49568       -0.73511
H          2.08454        0.78598       -1.55743
H          1.59589        1.75268       -0.21671
H         -0.27425        0.92357        1.12663
H         -1.69322       -0.48253        2.15707
H         -3.98402       -1.26642        2.55049
H         -5.75475       -0.81320        0.88121
H         -5.19402        0.42572       -1.18150
H         -2.90907        1.19683       -1.58020
H         -1.15561        2.59453       -1.25502
H          0.12097        3.00879       -0.13618
H         -1.52876        2.96245        0.42118
H          5.53443       -0.92791        0.93543
H          4.65486        1.95765        0.48980
H          4.05253       -1.60838        1.60777
H          3.92106        1.58531       -1.06277
H          4.70501       -0.11036        2.25932
H          5.43282        0.83658       -0.61816
