38
../min.omega.180.chi1.270.phi1.30.log	Energy: -502157.6293562
N         -0.26485        1.12143       -0.53386
C          1.58015        2.51047       -1.23694
C          0.46177        2.25324       -0.24398
C          0.50117        0.40961        0.51448
C         -0.22365       -0.34185        1.63166
C          1.80605       -0.32483        0.21554
C          3.06427        0.28613        0.27627
C          4.22970       -0.44581        0.09785
C          4.18880       -1.81645       -0.15182
C          2.95350       -2.44865       -0.17986
C          1.78946       -1.70415        0.01191
C         -1.15529       -0.01191       -0.64324
O          0.26247        3.04395        0.66756
C         -2.58876        0.17644       -0.09801
C         -4.83691       -0.69786        0.22212
C         -3.12506       -2.21312       -0.66961
N         -3.45564       -0.87549       -0.20537
O         -2.93758        1.27798        0.29452
H          2.21976        1.67297       -1.41078
H          2.13461        3.37740       -0.90961
H          1.13326        2.70929       -2.20392
H         -1.42605       -0.07528       -1.71649
H         -0.66783       -0.94772       -0.51677
H          0.88553        1.11316        1.23271
H          3.17801        1.30832        0.56703
H          5.17278        0.06346        0.17733
H          5.09671       -2.37299       -0.29005
H          2.87914       -3.50792       -0.34531
H          0.84993       -2.23461       -0.01662
H         -0.69046       -1.28644        1.37303
H         -0.98301        0.30850        2.04428
H          0.49574       -0.53680        2.41689
H         -5.51113       -0.89116       -0.60577
H         -3.19982       -2.93087        0.14066
H         -4.97314        0.31085        0.56642
H         -2.13169       -2.26622       -1.07927
H         -5.07081       -1.38918        1.02475
H         -3.81844       -2.50941       -1.44869
