38
../min.omega.0.chi1.105.phi1.180.log	Energy: -505587.9195340
N         -1.48313       -0.12287        0.00331
C         -3.75397       -0.20539       -1.02037
C         -2.53742       -0.89370       -0.42948
C         -0.55716       -0.64350        1.03482
C         -1.12641       -1.70911        1.97214
C          0.78734       -1.06838        0.44891
C          1.97529       -0.59170        1.01601
C          3.20942       -0.99257        0.52404
C          3.27898       -1.87973       -0.54869
C          2.10726       -2.36317       -1.11417
C          0.86653       -1.96392       -0.61693
C         -1.60474        1.31080       -0.13490
O         -2.50878       -2.11563       -0.38587
C         -0.39909        2.13904        0.36311
C          1.74665        3.20274       -0.07131
C          0.82703        1.68305       -1.77306
N          0.63992        2.35726       -0.49852
O         -0.44474        2.63006        1.47934
H         -4.18445        0.51648       -0.33642
H         -4.47955       -0.97430       -1.23658
H         -3.50859        0.31282       -1.94113
H         -1.80328        1.56797       -1.16514
H         -2.41903        1.69922        0.46496
H         -0.36307        0.20259        1.67496
H          1.93022        0.09815        1.84122
H          4.11228       -0.61686        0.97209
H          4.23472       -2.19033       -0.93161
H          2.15174       -3.05455       -1.93695
H         -0.03676       -2.35276       -1.04921
H         -1.23222       -2.67304        1.50467
H         -2.09193       -1.40484        2.36289
H         -0.44160       -1.79884        2.80914
H          2.61281        2.59865        0.18080
H          0.76607        2.39460       -2.59136
H          1.44940        3.77731        0.78890
H          0.09580        0.90694       -1.92077
H          2.01638        3.87372       -0.87973
H          1.80340        1.21408       -1.79272
