38
../min.omega.180.chi1.60.phi1.90.log	Energy: -501732.8390520
N          0.71601        1.29152        0.42954
C          0.47548        3.22678        0.95611
C          1.20902        2.45133       -0.12253
C         -0.61050        0.67488        0.20013
C         -1.10484        1.59400       -0.91743
C         -1.97154        0.03653       -0.06740
C         -2.01178       -1.01948        0.85091
C         -3.01719       -1.93876        1.11523
C         -4.20210       -1.88924        0.38298
C         -4.25453       -0.87450       -0.56251
C         -3.19033        0.00897       -0.74421
C          1.23247        0.21454       -0.38452
O          0.44127        3.28554       -0.58133
C          2.58727       -0.42683       -0.00936
C          4.07174       -2.35274        0.07614
C          1.81716       -2.68027       -0.82639
N          2.77747       -1.76168       -0.23644
O          3.45651        0.25130        0.51381
H         -0.37315        2.64319        1.29932
H          0.14391        4.21448        1.29791
H          1.32766        3.06863        1.58378
H          1.18711       -0.44200        0.58690
H          0.67033       -0.48594       -0.93763
H         -0.94837        1.18949        1.12963
H         -1.17152       -1.16966        1.51084
H         -2.86367       -2.67178        1.88402
H         -5.01201       -2.57260        0.54005
H         -5.12270       -0.73442       -1.17742
H         -3.40921        0.72527       -1.50036
H         -0.85453        1.04247       -1.81137
H         -1.18573        2.55880       -1.63567
H         -2.09803        1.79968       -0.79259
H          3.94619       -3.15549        0.79466
H          2.14705       -3.00682       -1.80654
H          4.71592       -1.60097        0.48776
H          0.84166       -2.23636       -0.93175
H          4.52362       -2.76506       -0.82004
H          1.71704       -3.55572       -0.19590
