38
../min.omega.0.chi1.30.phi1.180.log	Energy: -505584.3310684
N          0.40330        0.87154        0.02241
C         -0.19041        2.96260       -1.21829
C         -0.40999        1.97595       -0.08639
C         -0.19098       -0.37783        0.55005
C          0.14904       -0.52184        2.03388
C         -1.68035       -0.55958        0.26675
C         -2.04195       -1.05201       -0.99294
C         -3.36837       -1.29443       -1.32105
C         -4.36891       -1.06043       -0.37934
C         -4.02488       -0.58232        0.87743
C         -2.69119       -0.32995        1.19935
C          1.43707        0.73045       -0.97796
O         -1.28915        2.19412        0.73539
C          2.33459       -0.51775       -0.82291
C          4.20575       -1.64407        0.24495
C          3.59848        0.62749        0.99146
N          3.27102       -0.52902        0.17335
O          2.19036       -1.44372       -1.60454
H          0.78228        3.43853       -1.15803
H         -0.95518        3.71876       -1.13084
H         -0.26804        2.48137       -2.18651
H          1.03052        0.61242       -1.97521
H          2.06576        1.61000       -0.98114
H          0.29432       -1.18126        0.02153
H         -1.27285       -1.26133       -1.71765
H         -3.61957       -1.67472       -2.29515
H         -5.39847       -1.25228       -0.62378
H         -4.78911       -0.39512        1.61049
H         -2.45512        0.06405        2.16751
H         -0.23403        0.31712        2.60021
H          1.22320       -0.55659        2.16736
H         -0.27017       -1.43797        2.43610
H          5.17782       -1.35967       -0.14903
H          2.74349        1.27175        1.11574
H          3.82126       -2.46934       -0.32867
H          4.42225        1.19654        0.56686
H          4.32735       -1.94633        1.27873
H          3.89702        0.28547        1.97446
