38
../min.omega.180.chi1.225.phi1.240.log	Energy: -505593.4311687
N         -0.20031        1.43352       -0.12137
C          0.28601        3.88110       -0.03836
C         -0.46297        2.69210       -0.61126
C          0.96645        1.17305        0.75230
C          0.64577        1.22755        2.24639
C          1.70727       -0.09263        0.32716
C          2.59798       -0.02500       -0.75085
C          3.29387       -1.14653       -1.17947
C          3.11341       -2.36791       -0.53269
C          2.23427       -2.44968        0.53822
C          1.53589       -1.32028        0.96573
C         -0.95330        0.35308       -0.71717
O         -1.29660        2.88728       -1.48466
C         -1.83467       -0.44830        0.26698
C         -3.25128       -2.39187        0.62627
C         -2.26380       -2.03150       -1.60725
N         -2.48940       -1.52533       -0.26303
O         -1.96126       -0.12492        1.43683
H          0.36164        3.85509        1.03932
H         -0.25225        4.76560       -0.34325
H          1.28945        3.93453       -0.44929
H         -1.59612        0.78995       -1.46306
H         -0.28586       -0.33302       -1.22069
H          1.66158        1.97611        0.55880
H          2.74514        0.91353       -1.25721
H          3.97569       -1.06970       -2.00742
H          3.65402       -3.23815       -0.85895
H          2.08946       -3.38620        1.04660
H          0.85867       -1.40816        1.79389
H         -0.04249        0.45871        2.55161
H          0.18632        2.17685        2.49370
H          1.56775        1.13921        2.81374
H         -4.20848       -2.62510        0.17373
H         -1.39224       -2.67951       -1.66029
H         -3.41224       -1.88589        1.56187
H         -2.14721       -1.23007       -2.32086
H         -2.72057       -3.32279        0.81031
H         -3.13077       -2.60630       -1.90515
