38
../min.omega.0.chi1.75.phi1.150.log	Energy: -501769.6231550
N         -0.35976        0.83233       -0.31537
C         -0.78918        2.89289        0.99252
C         -0.11294        2.17718       -0.16219
C          0.41821       -0.12422       -1.13528
C          1.75594        0.53195       -0.79170
C          1.73441       -0.46215       -0.43891
C          1.89462       -1.77884        0.00911
C          3.05305       -2.19592        0.64933
C          4.09230       -1.29100        0.85848
C          3.95196        0.01712        0.41626
C          2.78538        0.42960       -0.22793
C         -1.25815        0.32507        0.69700
O          0.67424        2.77274       -0.88435
C         -2.05405       -0.84929        0.08464
C         -4.21490       -1.84712       -0.42351
C         -4.12284        0.36327        0.72398
N         -3.41756       -0.77185        0.15116
O         -1.52389       -1.82601       -0.41944
H         -1.88554        2.88415        0.88573
H         -0.44686        3.92846        0.98476
H         -0.52269        2.43324        1.95207
H         -1.51160        1.08928        1.47994
H         -2.03773        0.00149       -0.02854
H          0.09409       -0.02635       -2.18786
H          1.05835       -2.52011       -0.16354
H          3.15267       -3.27329        0.99313
H          5.03854       -1.62658        1.37715
H          4.78860        0.76033        0.57350
H          2.72166        1.51023       -0.58046
H          1.98791        0.47972        0.29518
H          1.72776        1.59271       -1.07671
H          2.56928        0.04234       -1.35180
H         -4.82083       -2.33669        0.38492
H         -4.74122        0.94246       -0.10402
H         -3.55929       -2.66694       -0.85343
H         -3.43619        1.13648        1.27201
H         -4.92210       -1.42421       -1.27120
H         -4.81921       -0.05523        1.48805
