38
../min.omega.0.chi1.300.phi1.90.log	Energy: -505590.7980430
N         -0.21873        1.16201        0.37975
C         -0.87933        2.74602       -1.43040
C          0.17523        2.08179       -0.56460
C          0.85726        0.59304        1.22297
C          0.32562       -0.29850        2.34575
C          1.94748       -0.15254        0.45680
C          3.27822        0.03213        0.85059
C          4.30549       -0.68971        0.25944
C          4.02177       -1.61101       -0.74721
C          2.70636       -1.79462       -1.15021
C          1.67192       -1.07470       -0.55214
C         -1.61154        0.82002        0.55979
O          1.34594        2.42269       -0.65983
C         -2.11771       -0.35933       -0.30074
C         -3.80872       -2.01415       -0.78773
C         -4.25326       -0.38818        0.99243
N         -3.28255       -0.96714        0.07778
O         -1.49718       -0.71808       -1.28836
H         -1.51349        2.02364       -1.92822
H         -0.35759        3.33580       -2.16849
H         -1.49996        3.40814       -0.83426
H         -1.78569        0.60594        1.59911
H         -2.23428        1.67378        0.32919
H          1.34201        1.44168        1.68848
H          3.51122        0.75550        1.61282
H          5.32171       -0.52791        0.57289
H          4.81619       -2.16742       -1.21210
H          2.47637       -2.49574       -1.93310
H          0.66433       -1.21595       -0.88989
H         -0.20991       -1.16265        1.96652
H         -0.31553        0.24219        3.03495
H          1.17135       -0.66688        2.91250
H         -4.36800       -2.71842       -0.18404
H         -5.02252        0.16285        0.45632
H         -2.99512       -2.52439       -1.27347
H         -3.79219        0.27636        1.70443
H         -4.46938       -1.60519       -1.54771
H         -4.73328       -1.18385        1.54832
