38
../min.omega.0.chi1.75.phi1.90.log	Energy: -501417.7460964
N          0.37881       -0.69928       -1.10944
C          0.66505       -0.90246        1.43051
C          0.21407       -1.39317        0.06716
C         -1.05618       -1.00237       -1.31306
C         -1.56451       -1.29991        0.09803
C         -2.04918       -0.19287       -0.48230
C         -2.54659        0.87306       -1.24154
C         -3.47407        1.78969       -0.76681
C         -3.95588        1.66705        0.53529
C         -3.48724        0.61890        1.31515
C         -2.55385       -0.28867        0.81400
C          0.99139        0.26384       -0.22263
O         -0.44133       -2.42486        0.02328
C          2.49642       -0.07550       -0.13720
C          4.78952        0.69631        0.15917
C          2.97942        2.35841        0.22313
N          3.36156        0.96555        0.05598
O          2.88036       -1.22737       -0.25950
H          1.79822       -0.86231        1.46189
H          0.34648       -1.63287        2.25133
H          0.18571        0.12193        1.66109
H          1.89152        0.47498       -0.82746
H          0.26392        1.04862       -0.00876
H         -1.04462       -1.81873       -2.03766
H         -2.18494        0.97956       -2.26754
H         -3.82628        2.59501       -1.41548
H         -4.68674        2.37310        0.93018
H         -3.85186        0.49430        2.33773
H         -2.25726       -1.08360        1.50044
H         -1.43623       -0.41188        0.79089
H         -1.08151       -2.11305        0.63696
H         -2.63027       -1.57507        0.02424
H          5.33608        1.24166       -0.61826
H          3.19438        2.70273        1.24376
H          4.95866       -0.36938        0.03694
H          1.92136        2.51818        0.02371
H          5.16746        1.01474        1.13903
H          3.55091        2.98209       -0.47265
