38
../min.omega.180.chi1.270.phi1.360.log	Energy: -505586.2724698
N         -0.26511        0.55163        0.30026
C          0.06663        2.65795       -1.00779
C         -0.69619        1.38035       -0.70989
C          1.01521        0.77918        1.00843
C          0.90211        0.48453        2.50460
C          2.21697        0.08063        0.37654
C          3.20811        0.85474       -0.23864
C          4.32900        0.27242       -0.81337
C          4.48875       -1.11185       -0.78287
C          3.52492       -1.89288       -0.16041
C          2.40408       -1.30039        0.42159
C         -0.97081       -0.67186        0.60742
O         -1.71154        1.13867       -1.34746
C         -2.22515       -1.05019       -0.21177
C         -4.59678       -0.99927       -0.57885
C         -3.61389        0.63764        0.95205
N         -3.44425       -0.60808        0.22168
O         -2.11029       -1.90189       -1.07814
H          0.09804        3.31344       -0.14453
H         -0.46227        3.15370       -1.80707
H          1.08078        2.45575       -1.32575
H         -0.31966       -1.51335        0.43380
H         -1.24442       -0.67445        1.65456
H          1.20659        1.83674        0.93715
H          3.11012        1.92587       -0.25982
H          5.07362        0.89213       -1.27978
H          5.35309       -1.56841       -1.22997
H          3.63923       -2.96101       -0.11906
H          1.69200       -1.93431        0.91405
H          0.79397       -0.56989        2.72365
H          0.05874        1.01367        2.93622
H          1.80610        0.82539        2.99606
H         -5.48993       -0.89756        0.02634
H         -3.81082        1.46399        0.27768
H         -4.49023       -2.02468       -0.89056
H         -2.73284        0.87505        1.52818
H         -4.69329       -0.37227       -1.46089
H         -4.44654        0.53506        1.63865
