38
../min.omega.180.chi1.105.phi1.0.log	Energy: -505583.6426830
N         -0.27503        0.89125       -0.26961
C         -0.26504        2.52059        1.65846
C         -0.95404        1.52110        0.74786
C          1.09466        1.14844       -0.76990
C          1.66797        2.55601       -0.60208
C          2.08777        0.07827       -0.32272
C          3.07397       -0.35329       -1.21783
C          4.02430       -1.29034       -0.83756
C          4.00577       -1.82219        0.45063
C          3.02954       -1.40769        1.34594
C          2.07697       -0.46363        0.96200
C         -0.94987       -0.05773       -1.12596
O         -2.12927        1.26413        0.96841
C         -2.44600       -0.37585       -0.90695
C         -4.20806       -1.64491        0.11839
C         -1.95490       -1.78374        1.06969
N         -2.78409       -1.39407       -0.05931
O         -3.25620        0.14842       -1.65386
H          0.71112        2.19470        1.98753
H         -0.91182        2.63909        2.51450
H         -0.16411        3.48116        1.17098
H         -0.93879        0.32535       -2.13739
H         -0.38922       -0.98613       -1.12569
H          0.99449        1.03234       -1.84154
H          3.09341        0.04271       -2.21891
H          4.77043       -1.61092       -1.54225
H          4.73813       -2.55172        0.74553
H          3.00187       -1.81526        2.34063
H          1.32265       -0.16570        1.66630
H          2.02066        2.76843        0.39535
H          0.94790        3.30972       -0.89939
H          2.52256        2.63743       -1.26390
H         -4.33880       -2.65169        0.49726
H         -2.21983       -1.22789        1.96313
H         -4.71304       -1.54992       -0.82810
H         -0.90935       -1.61844        0.86091
H         -4.64592       -0.94230        0.82220
H         -2.09291       -2.84196        1.25909
