38
../min.omega.180.chi1.225.phi1.330.log	Energy: -505591.0991954
N         -0.17090        0.80312       -0.07770
C         -0.53366        2.95720       -1.28989
C         -1.02644        1.61187       -0.78974
C          1.13932        1.26855        0.43139
C          1.03664        1.73477        1.88405
C          2.21911        0.22629        0.14985
C          2.46894       -0.13999       -1.17810
C          3.45463       -1.06435       -1.49397
C          4.21667       -1.64640       -0.48246
C          3.97970       -1.29286        0.83863
C          2.98821       -0.36310        1.15253
C         -0.63116       -0.48006        0.40283
O         -2.14134        1.22399       -1.10973
C         -2.14154       -0.54812        0.72172
C         -4.31731       -1.50974        0.48642
C         -2.73952       -1.76983       -1.35312
N         -2.92883       -1.44232        0.05078
O         -2.53798        0.07061        1.69597
H         -0.23194        3.61480       -0.48318
H         -1.35158        3.41096       -1.82815
H          0.30856        2.83369       -1.96170
H         -0.32305       -1.26340       -0.27440
H         -0.15967       -0.68369        1.35174
H          1.40607        2.13168       -0.15770
H          1.88236        0.29798       -1.96668
H          3.62940       -1.32929       -2.52136
H          4.98113       -2.36266       -0.72396
H          4.56011       -1.73557        1.62810
H          2.82749       -0.10758        2.18266
H          0.74649        0.93936        2.55893
H          0.28438        2.51065        1.96050
H          1.98304        2.14288        2.22252
H         -4.89567       -0.67729        0.09544
H         -3.07679       -2.78546       -1.52546
H         -4.36422       -1.48742        1.56251
H         -1.70411       -1.70551       -1.64176
H         -4.74676       -2.43710        0.12681
H         -3.30418       -1.09498       -1.98725
