38
../min.omega.0.chi1.315.phi1.60.log	Energy: -505587.9411360
N          0.21870       -1.13546        0.21977
C          1.10423       -1.45284       -2.11019
C         -0.02278       -1.46508       -1.09403
C         -0.97172       -0.93065        1.07618
C         -0.64665       -0.38601        2.46752
C         -2.08326       -0.08726        0.45595
C         -3.40580       -0.53916        0.53791
C         -4.45586        0.24920        0.08883
C         -4.20376        1.50700       -0.45616
C         -2.89535        1.96159       -0.54479
C         -1.83920        1.17399       -0.08622
C          1.54478       -0.77080        0.66455
O         -1.13781       -1.81559       -1.45420
C          2.17508        0.46457       -0.01674
C          4.18169        1.76338       -0.48087
C          4.36615       -0.24062        0.94803
N          3.50844        0.66946        0.20632
O          1.50101        1.22933       -0.68749
H          1.18675       -0.45981       -2.53030
H          0.82834       -2.14560       -2.89136
H          2.06908       -1.73684       -1.70840
H          1.53159       -0.57696        1.72227
H          2.21062       -1.61511        0.53067
H         -1.39627       -1.91730        1.22085
H         -3.60970       -1.51697        0.93815
H         -5.46489       -0.11796        0.15371
H         -5.01633        2.11629       -0.81014
H         -2.68848        2.92802       -0.96968
H         -0.83120        1.53309       -0.17571
H         -0.21048        0.60656        2.42996
H          0.00877       -1.04475        3.02911
H         -1.57573       -0.30949        3.01815
H          4.71323        2.37821        0.23723
H          4.74667       -1.04645        0.32551
H          3.45065        2.36385       -0.99271
H          3.85855       -0.66738        1.80043
H          4.89672        1.37694       -1.20151
H          5.21125        0.31994        1.32472
