38
../min.omega.0.chi1.360.phi1.180.log	Energy: -505578.4245646
N         -0.36238        0.81698       -0.11597
C         -0.02372        3.21114        0.54284
C          0.41324        1.95147       -0.18186
C          0.27624       -0.51612       -0.02930
C         -0.26515       -1.42137       -1.13634
C          1.80220       -0.56880       -0.01692
C          2.44230       -0.64592        1.22581
C          3.81937       -0.78711        1.32357
C          4.59222       -0.86677        0.16641
C          3.97212       -0.79798       -1.07341
C          2.58818       -0.64898       -1.16587
C         -1.56610        0.95205        0.67277
O          1.42915        1.99866       -0.86124
C         -2.48093       -0.28806        0.78597
C         -4.42853       -1.53199        0.02204
C         -3.54578        0.27946       -1.40123
N         -3.47033       -0.44737       -0.14422
O         -2.35856       -1.03095        1.74633
H         -0.94075        3.61571        0.12818
H          0.76458        3.93507        0.40674
H         -0.18167        3.04532        1.60184
H         -1.33814        1.15353        1.71360
H         -2.15379        1.77667        0.30035
H         -0.03449       -0.92898        0.91911
H          1.85371       -0.60368        2.12656
H          4.28546       -0.84507        2.29101
H          5.65927       -0.98195        0.23432
H          4.55835       -0.85208       -1.97333
H          2.13930       -0.57024       -2.13662
H         -0.04898       -1.00385       -2.11236
H         -1.33561       -1.55281       -1.06568
H          0.19055       -2.40268       -1.07135
H         -5.41732       -1.17698       -0.24621
H         -2.64038        0.83288       -1.59058
H         -4.42855       -1.85718        1.04817
H         -4.39150        0.96074       -1.40730
H         -4.17779       -2.37404       -0.61699
H         -3.67190       -0.42545       -2.21562
