38
../min.omega.0.chi1.180.phi1.270.log	Energy: -505592.4346109
N          1.36042       -0.70412       -0.42668
C          3.61892        0.27569       -0.83811
C          2.72633       -0.86224       -0.37846
C          0.53350       -1.73755        0.23717
C          0.91447       -1.94947        1.70280
C         -0.95927       -1.44281        0.10963
C         -1.67257       -2.00893       -0.95374
C         -3.03366       -1.78804       -1.11007
C         -3.71855       -0.99044       -0.19497
C         -3.02669       -0.42832        0.86888
C         -1.65869       -0.65422        1.02244
C          0.77837        0.52822       -0.90820
O          3.23239       -1.91844       -0.02604
C          0.53923        1.58317        0.19520
C         -0.55555        3.62849        0.90730
C         -1.01032        2.75001       -1.35566
N         -0.22049        2.67022       -0.13753
O          1.06189        1.45934        1.29094
H          3.52702        0.43655       -1.90760
H          4.63564       -0.01439       -0.62109
H          3.38885        1.20005       -0.32382
H          1.42077        0.97279       -1.65451
H         -0.14956        0.30318       -1.40654
H          0.72552       -2.66251       -0.29020
H         -1.15324       -2.63090       -1.66205
H         -3.55908       -2.23874       -1.93307
H         -4.77433       -0.82037       -0.30749
H         -3.54589        0.17998        1.58810
H         -1.14712       -0.20903        1.85376
H          0.89956       -1.01634        2.24997
H          1.90177       -2.37295        1.78227
H          0.20802       -2.63549        2.15939
H         -0.51100        4.63276        0.50246
H         -1.93663        2.18680       -1.28178
H          0.15066        3.53583        1.71381
H         -0.45415        2.39999       -2.21328
H         -1.55751        3.45324        1.29080
H         -1.25618        3.78818       -1.53415
