38
../min.omega.180.chi1.255.phi1.270.log	Energy: -505595.2841960
N         -0.16987        0.96874        0.07838
C          0.37497        3.40446        0.02066
C         -0.38146        2.19763       -0.50306
C          0.90424        0.67759        1.05511
C          0.33360        0.07149        2.33774
C          2.03521       -0.12254        0.41309
C          2.50749        0.23443       -0.85560
C          3.56669       -0.43966       -1.44680
C          4.18373       -1.49803       -0.78215
C          3.72460       -1.86690        0.47465
C          2.66036       -1.18493        1.06486
C         -0.92534       -0.13312       -0.47340
O         -1.18030        2.32823       -1.41993
C         -2.28798       -0.32582        0.22921
C         -4.43949       -1.43902        0.27982
C         -2.86745       -1.96755       -1.54120
N         -3.09186       -1.31781       -0.25997
O         -2.60578        0.35398        1.19152
H          0.18283        3.55679        1.07659
H          0.02457        4.26274       -0.53207
H          1.44547        3.30570       -0.12012
H         -1.08475        0.03943       -1.52542
H         -0.34910       -1.04409       -0.36679
H          1.32038        1.63375        1.33243
H          2.03965        1.03759       -1.39451
H          3.90773       -0.14310       -2.42256
H          5.00317       -2.02314       -1.23885
H          4.18632       -2.68355        1.00032
H          2.33034       -1.49658        2.03686
H         -0.03902       -0.93550        2.18763
H         -0.48883        0.67849        2.68551
H          1.09595        0.03699        3.10823
H         -5.16057       -0.91318       -0.34087
H         -3.37940       -2.92107       -1.53655
H         -4.46404       -1.02298        1.27181
H         -1.81936       -2.16461       -1.70867
H         -4.71516       -2.48652        0.31959
H         -3.25035       -1.37949       -2.37179
