38
../min.omega.0.chi1.180.phi1.30.log	Energy: -505582.2092073
N         -0.22403        1.07890       -0.11343
C         -2.60963        1.91716        0.03023
C         -1.11317        2.12886       -0.10645
C          1.20660        1.45486       -0.04676
C          1.52212        2.32268        1.17203
C          2.14283        0.24869       -0.05791
C          2.71268       -0.15118       -1.27258
C          3.59348       -1.22144       -1.34000
C          3.92890       -1.92211       -0.18276
C          3.37631       -1.53579        1.03043
C          2.49353       -0.45740        1.09219
C         -0.56062       -0.32200        0.00275
O         -0.71467        3.27383       -0.26797
C         -1.93378       -0.77089       -0.54545
C         -3.90787       -2.16933       -0.32237
C         -2.48074       -1.81191        1.66457
N         -2.72601       -1.54464        0.25657
O         -2.21932       -0.52375       -1.70586
H         -3.02844        1.65510       -0.93056
H         -3.01830        2.86408        0.35086
H         -2.88223        1.15336        0.74669
H          0.11913       -0.88721       -0.61549
H         -0.41311       -0.66783        1.01590
H          1.41523        2.03891       -0.93192
H          2.45950        0.38278       -2.17157
H          4.01849       -1.50604       -2.28575
H          4.61283       -2.75036       -0.22912
H          3.63159       -2.06375        1.93196
H          2.08886       -0.17692        2.04671
H          1.18528        1.85025        2.08998
H          1.05088        3.28720        1.09826
H          2.59476        2.46563        1.24555
H         -3.88879       -3.23795       -0.13524
H         -3.40455       -2.16085        2.10500
H         -3.91871       -1.99221       -1.38321
H         -2.18625       -0.92013        2.20065
H         -4.81075       -1.75706        0.11736
H         -1.72690       -2.57870        1.81502
