38
../min.omega.180.chi1.150.phi1.330.log	Energy: -505581.6910922
N          0.19431        0.85227        0.03613
C          0.85581        3.17377       -0.76331
C          1.16493        1.74479       -0.35669
C         -1.11268        1.14128        0.66917
C         -1.75067        2.51429        0.45487
C         -2.14669        0.08338        0.29078
C         -2.94464       -0.50016        1.28215
C         -3.94276       -1.40446        0.94781
C         -4.15830       -1.74667       -0.38601
C         -3.36857       -1.17857       -1.37597
C         -2.36902       -0.26496       -1.04095
C          0.64321       -0.47421        0.39425
O          2.34130        1.41062       -0.37500
C          1.90910       -0.99379       -0.32347
C          4.09921       -1.94796       -0.31494
C          3.42935       -0.59342        1.59468
N          3.00009       -1.34119        0.42395
O          1.81200       -1.28231       -1.50520
H          0.81571        3.80876        0.11302
H         -0.05707        3.28550       -1.32512
H          1.69164        3.49294       -1.36775
H          0.74368       -0.54757        1.47166
H         -0.11142       -1.18348        0.09960
H         -0.94940        1.04903        1.74156
H         -2.78106       -0.24744        2.31584
H         -4.54543       -1.84590        1.72126
H         -4.92737       -2.45193       -0.64470
H         -3.52056       -1.44412       -2.40661
H         -1.74696        0.15238       -1.81218
H         -1.98757        2.70053       -0.58413
H         -1.15227        3.32631        0.84107
H         -2.68519        2.51309        1.00263
H          4.67374       -1.20131       -0.85639
H          3.93925       -1.26672        2.27421
H          3.71326       -2.66431       -1.02087
H          2.59482       -0.15712        2.11742
H          4.75095       -2.45168        0.38894
H          4.10451        0.20919        1.31733
