38
../min.omega.0.chi1.210.phi1.270.log	Energy: -505595.4001535
N          0.59709       -1.24265       -0.23098
C          2.67565       -2.12483       -1.28171
C          1.43915       -2.31376       -0.42249
C         -0.52228       -1.44117        0.71775
C         -0.07018       -1.29177        2.17082
C         -1.73247       -0.59017        0.33995
C         -2.50907       -0.97896       -0.75813
C         -3.62059       -0.24547       -1.14841
C         -3.98487        0.89924       -0.44160
C         -3.22807        1.29409        0.65283
C         -2.11064        0.55450        1.04065
C          0.85294        0.05199       -0.82068
O          1.20602       -3.40278        0.08302
C          1.70168        0.98882        0.06791
C          2.40923        3.25234        0.60974
C          0.79369        2.90515       -1.23179
N          1.68681        2.31976       -0.24502
O          2.38797        0.53213        0.96769
H          2.41339       -1.92060       -2.31495
H          3.23513       -3.04697       -1.24212
H          3.28711       -1.31302       -0.90882
H          1.37404       -0.05992       -1.76149
H         -0.09174        0.51429       -1.05122
H         -0.81299       -2.47047        0.58358
H         -2.23644       -1.86443       -1.30573
H         -4.20468       -0.56661       -1.99236
H         -4.84870        1.46696       -0.73764
H         -3.50455        2.17061        1.21152
H         -1.54632        0.87581        1.89585
H          0.31802       -0.30651        2.38877
H          0.71695       -2.00610        2.36947
H         -0.89946       -1.50096        2.83969
H          3.00327        3.92355       -0.00049
H         -0.21787        3.02506       -0.85392
H          3.05661        2.69939        1.26747
H          0.76033        2.31788       -2.13877
H          1.71897        3.84497        1.20398
H          1.17462        3.88234       -1.49564
