38
../min.omega.180.chi1.285.phi1.60.log	Energy: -501962.3890928
N          0.30271        0.98930        0.21962
C         -1.02884        2.15032        1.29021
C         -0.26666        2.21864       -0.02025
C         -0.42480        0.06165       -0.67631
C          0.77092       -0.61996       -1.34248
C         -1.84496       -0.34431       -0.28919
C         -2.97589        0.46192       -0.11300
C         -4.22416       -0.05824        0.19853
C         -4.40421       -1.43318        0.33919
C         -3.31191       -2.26489        0.13534
C         -2.06935       -1.71639       -0.18281
C          1.09643       -0.20852        0.06289
O         -1.26986        2.59603       -0.60933
C          2.57454        0.23059       -0.03676
C          4.92609       -0.34442        0.17644
C          3.24197       -2.08643        0.64570
N          3.51888       -0.70910        0.27111
O          2.87104        1.37048       -0.35594
H         -1.38259        1.10798        1.52239
H         -1.89927        2.82662        1.28662
H         -0.36121        2.49009        2.13362
H          1.71546       -0.15203        0.98924
H          0.39019       -1.02470        0.02860
H         -1.00110        0.71877       -1.32530
H         -2.89241        1.53539       -0.28099
H         -5.07406        0.61493        0.31341
H         -5.38424       -1.84645        0.57911
H         -3.42243       -3.34620        0.21535
H         -1.23850       -2.40029       -0.34989
H          1.33979       -1.34961       -0.77681
H          1.48128        0.14053       -1.65624
H          0.41219       -1.15126       -2.23379
H          5.40842       -0.47163        1.15732
H          3.59857       -2.79134       -0.14084
H          5.02085        0.70675       -0.12950
H          2.17230       -2.27447        0.81533
H          5.43851       -0.99076       -0.57081
H          3.76260       -2.31651        1.58509
