38
../min.omega.180.chi1.105.phi1.60.log	Energy: -505591.2015560
N          0.15376        0.31167       -0.17282
C         -0.15523        2.78771       -0.52192
C          0.66227        1.51237       -0.61185
C         -0.87798        0.12592        0.87289
C         -0.96584        1.22599        1.93130
C         -2.23917       -0.24370        0.28803
C         -3.20941       -0.79825        1.13133
C         -4.46476       -1.14427        0.65158
C         -4.78108       -0.94468       -0.69108
C         -3.82500       -0.40505       -1.54028
C         -2.56283       -0.06104       -1.05590
C          1.07694       -0.78795       -0.33981
O          1.75373        1.54307       -1.16287
C          2.38578       -0.54838        0.44576
C          4.78048       -0.70752        0.65923
C          3.72017       -1.30573       -1.49262
N          3.56109       -1.01119       -0.07770
O          2.31253       -0.04164        1.55346
H         -1.22135        2.61517       -0.52657
H          0.12072        3.39129       -1.37504
H          0.11346        3.33244        0.37459
H          0.62585       -1.69524        0.03782
H          1.26422       -0.92984       -1.39058
H         -0.53311       -0.73802        1.42152
H         -2.98082       -0.96904        2.16911
H         -5.19161       -1.57153        1.31917
H         -5.75270       -1.21258       -1.06532
H         -4.05197       -0.25360       -2.58060
H         -1.83062        0.33575       -1.73231
H         -1.50034        2.10405        1.60010
H          0.02817        1.50011        2.26147
H         -1.50095        0.83543        2.78885
H          5.50417       -1.49493        0.48690
H          3.56428       -0.42805       -2.10969
H          4.55744       -0.65179        1.71072
H          3.04852       -2.09172       -1.81278
H          5.20885        0.23940        0.34167
H          4.72772       -1.66447       -1.64996
