38
../min.omega.180.chi1.240.phi1.360.log	Energy: -505588.1304657
N         -0.24573        0.72614       -0.02788
C         -0.51740        2.74662       -1.47190
C         -0.99103        1.39442       -0.97177
C          1.04139        1.24457        0.48889
C          0.91074        1.69158        1.94534
C          2.18956        0.27715        0.21083
C          2.39501       -0.16867       -1.10031
C          3.45013       -1.01407       -1.41307
C          4.33017       -1.43318       -0.41682
C          4.13814       -0.99949        0.88758
C          3.07512       -0.15149        1.19892
C         -0.64195       -0.56425        0.48905
O         -2.04459        0.94181       -1.39722
C         -1.94289       -1.21266       -0.03506
C         -4.31440       -1.56912        0.07010
C         -3.36100        0.32629        1.29053
N         -3.11816       -0.93288        0.60527
O         -1.84870       -2.10245       -0.86485
H         -0.40091        3.45745       -0.66173
H         -1.27273        3.10643       -2.15343
H          0.42666        2.67579       -2.00013
H          0.11649       -1.29032        0.24027
H         -0.70088       -0.51181        1.56966
H          1.26092        2.13254       -0.07985
H          1.71589        0.13224       -1.87786
H          3.58315       -1.34750       -2.42635
H          5.14734       -2.08925       -0.65638
H          4.80713       -1.31826        1.66668
H          2.95262        0.16485        2.21712
H          0.73957        0.86647        2.62590
H          0.07939        2.38168        2.03702
H          1.80894        2.20701        2.26621
H         -5.08354       -1.55934        0.83338
H         -3.80962        1.05567        0.62459
H         -4.09232       -2.58739       -0.20150
H         -2.44419        0.74148        1.67956
H         -4.67971       -1.04327       -0.80768
H         -4.03008        0.15158        2.12533
