38
../min.omega.180.chi1.150.phi1.300.log	Energy: -505587.2811649
N          0.21387        1.04594        0.18997
C          0.85001        3.27180       -0.87555
C          1.17375        1.94591       -0.21215
C         -1.18782        1.28685        0.60195
C         -1.87641        2.54451        0.07067
C         -2.06799        0.08666        0.26087
C         -3.06422       -0.31117        1.16048
C         -3.93451       -1.34506        0.84512
C         -3.81880       -2.00467       -0.37725
C         -2.82703       -1.62386       -1.27044
C         -1.95386       -0.58191       -0.95744
C          0.79654       -0.13219        0.79148
O          2.35364        1.67083       -0.04469
C          1.72738       -0.86931       -0.19734
C          3.72040       -2.13459       -0.66125
C          3.44800       -1.09892        1.56614
N          2.84202       -1.48410        0.30183
O          1.38701       -0.98121       -1.36387
H          0.03572        3.21356       -1.57989
H          1.75065        3.57292       -1.38932
H          0.62101        4.02265       -0.12918
H          1.30928        0.13190        1.70437
H          0.01149       -0.83093        1.03669
H         -1.17909        1.37697        1.68691
H         -3.15726        0.18952        2.10955
H         -4.69330       -1.63962        1.54799
H         -4.48855       -2.80965       -0.62153
H         -2.72092       -2.13683       -2.20935
H         -1.16381       -0.32292       -1.63638
H         -1.95345        2.53831       -1.00867
H         -1.39918        3.45801        0.39514
H         -2.88452        2.54797        0.46658
H          4.45768       -1.44120       -1.05735
H          4.32749       -1.70920        1.71661
H          3.13340       -2.51846       -1.47762
H          2.78386       -1.28718        2.40025
H          4.23531       -2.95341       -0.17358
H          3.74514       -0.05666        1.57292
