38
../min.omega.0.chi1.210.phi1.300.log	Energy: -505594.0721257
N         -0.19879        1.12158       -0.27616
C         -2.30313        2.15558       -1.17192
C         -0.91991        2.25932       -0.55643
C          0.99025        1.29742        0.58855
C          0.58897        1.35311        2.06300
C          2.06854        0.26746        0.25994
C          2.68731        0.32921       -0.99440
C          3.68560       -0.56717       -1.34899
C          4.09272       -1.55067       -0.44920
C          3.49185       -1.62131        0.79996
C          2.48788       -0.71894        1.15181
C         -0.69926       -0.20797       -0.54288
O         -0.47930        3.36670       -0.28177
C         -2.00855       -0.57120        0.19292
C         -3.82707       -2.12188        0.55320
C         -2.00961       -2.77966       -0.95940
N         -2.64410       -1.71804       -0.19492
O         -2.45222        0.14810        1.07321
H         -2.45500        1.28640       -1.79872
H         -2.46157        3.05034       -1.75688
H         -3.02327        2.12735       -0.36636
H         -0.84518       -0.33972       -1.60814
H          0.05648       -0.92066       -0.25100
H          1.38481        2.26370        0.32239
H          2.38115        1.08912       -1.69207
H          4.14918       -0.49657       -2.31685
H          4.86874       -2.24451       -0.71851
H          3.80103       -2.37202        1.50533
H          2.04439       -0.79201        2.12673
H          0.10553        0.44047        2.39123
H         -0.10961        2.16561        2.20844
H          1.45781        1.53345        2.68804
H         -4.49382       -2.66106       -0.10885
H         -1.54609       -3.51789       -0.30905
H         -4.32762       -1.24884        0.93467
H         -1.25935       -2.39754       -1.63227
H         -3.56670       -2.76874        1.38703
H         -2.76199       -3.27994       -1.55607
