38
../min.omega.0.chi1.315.phi1.270.log	Energy: -505589.0145788
N          0.20091        0.40118        0.09515
C          0.74253        2.79144        0.53891
C         -0.18300        1.71863       -0.00458
C         -0.67082       -0.63921       -0.49661
C         -0.24780       -2.06401       -0.13726
C         -2.15638       -0.46151       -0.19160
C         -3.09319       -0.52448       -1.23010
C         -4.45372       -0.47845       -0.96055
C         -4.90831       -0.36818        0.35240
C         -3.98847       -0.30754        1.39001
C         -2.62107       -0.36201        1.11928
C          1.46150        0.04423        0.70572
O         -1.21406        2.04844       -0.57377
C          2.61937       -0.01124       -0.31596
C          4.93417       -0.56037       -0.80675
C          4.07680       -0.95198        1.47023
N          3.84831       -0.38923        0.14919
O          2.42506        0.30300       -1.47900
H          0.85835        2.72693        1.61609
H          0.29500        3.74252        0.29503
H          1.72196        2.72988        0.07969
H          1.71898        0.75755        1.47432
H          1.37470       -0.90614        1.20587
H         -0.56168       -0.54356       -1.57094
H         -2.75317       -0.59018       -2.24840
H         -5.15899       -0.51995       -1.77157
H         -5.96293       -0.32687        0.55841
H         -4.32733       -0.22018        2.40729
H         -1.91881       -0.31126        1.93349
H         -0.33220       -2.26556        0.92552
H          0.76135       -2.28862       -0.46525
H         -0.91461       -2.74681       -0.64888
H          5.84823       -0.15281       -0.39031
H          3.93358       -2.03008        1.48553
H          4.69077       -0.04048       -1.71673
H          3.43216       -0.50523        2.21177
H          5.09438       -1.61193       -1.03037
H          5.09810       -0.74433        1.76221
