38
../min.omega.0.chi1.285.phi1.120.log	Energy: -505588.0938675
N         -0.24193        1.15427        0.20607
C         -0.87404        3.18891       -1.12102
C          0.15610        2.28451       -0.47004
C          0.78449        0.57683        1.10358
C          0.17384       -0.31389        2.18609
C          1.91200       -0.17499        0.40002
C          3.15520       -0.21261        1.04273
C          4.22470       -0.91213        0.50175
C          4.07397       -1.58583       -0.70905
C          2.84917       -1.54393       -1.36062
C          1.77243       -0.84463       -0.81504
C         -1.64036        0.80416        0.31154
O          1.33072        2.62521       -0.47806
C         -2.04815       -0.56085       -0.28681
C         -3.69776       -2.29936       -0.54716
C         -4.33792       -0.26494        0.66094
N         -3.26551       -1.06016        0.08509
O         -1.32042       -1.16189       -1.06031
H         -1.47482        2.67743       -1.86474
H         -0.32846        3.98693       -1.60023
H         -1.53777        3.61509       -0.37575
H         -1.95150        0.83549        1.34527
H         -2.23541        1.54407       -0.19825
H          1.24553        1.42078        1.59823
H          3.29158        0.32052        1.96876
H          5.17092       -0.92285        1.01337
H          4.90054       -2.12541       -1.13629
H          2.72226       -2.05411       -2.29926
H          0.83363       -0.82759       -1.32699
H         -0.31990       -1.18444        1.77006
H         -0.52398        0.22515        2.81894
H          0.97244       -0.67329        2.82232
H         -4.37418       -2.81494        0.12329
H         -4.98199        0.15427       -0.10911
H         -2.84269       -2.92284       -0.74335
H         -3.96269        0.54155        1.26933
H         -4.21358       -2.10903       -1.48476
H         -4.94225       -0.89942        1.29656
