38
../min.omega.0.chi1.255.phi1.240.log	Energy: -505591.8517154
N         -0.16679        1.30013        0.09032
C         -0.46566        3.22005       -1.47553
C          0.09869        2.61814       -0.20191
C          0.63819        0.66115        1.15624
C         -0.21289        0.05365        2.27191
C          1.67501       -0.28245        0.55114
C          2.71513        0.27080       -0.20524
C          3.68608       -0.53286       -0.78593
C          3.64154       -1.91609       -0.62064
C          2.62139       -2.47822        0.13416
C          1.64725       -1.66675        0.71606
C         -0.96688        0.46172       -0.77352
O          0.82681        3.30072        0.50503
C         -2.23073       -0.09783       -0.08275
C         -3.87495       -1.86665        0.14498
C         -1.93791       -2.21519       -1.36144
N         -2.60368       -1.38056       -0.37443
O         -2.88408        0.62913        0.64788
H         -0.08024        2.70558       -2.34946
H         -0.14846        4.25100       -1.50456
H         -1.54853        3.18141       -1.50122
H         -1.33399        1.02530       -1.61547
H         -0.34821       -0.32916       -1.17120
H          1.17856        1.48027        1.59653
H          2.76639        1.33861       -0.32416
H          4.47875       -0.08385       -1.35746
H          4.39489       -2.54046       -1.06651
H          2.58094       -3.54338        0.27836
H          0.87766       -2.12756        1.30649
H         -0.78779       -0.80994        1.96310
H         -0.90682        0.79513        2.64232
H          0.43752       -0.25645        3.08345
H         -4.62397       -1.91251       -0.64075
H         -0.90101       -2.39493       -1.10970
H         -4.21739       -1.20197        0.91829
H         -1.98947       -1.79644       -2.36210
H         -3.74386       -2.86097        0.55650
H         -2.43907       -3.17228       -1.38219
