38
../min.omega.0.chi1.60.phi1.270.log	Energy: -505591.3484434
N          0.22060        1.20757        0.23517
C          0.82673        2.57979       -1.74874
C         -0.20905        2.00637       -0.79941
C         -0.75517        0.60635        1.17266
C         -1.35214        1.67204        2.09246
C         -1.78630       -0.31854        0.53012
C         -1.45758       -1.66623        0.34108
C         -2.37501       -2.56581       -0.18321
C         -3.65577       -2.13455       -0.52425
C         -3.99759       -0.80207       -0.33961
C         -3.07007        0.09990        0.18210
C          1.61823        0.90193        0.44143
O         -1.38819        2.30347       -0.93060
C          2.10259       -0.36822       -0.29319
C          3.78945       -2.10269       -0.54319
C          4.11671       -0.36142        1.17541
N          3.33006       -0.85775        0.05787
O          1.42422       -0.86531       -1.17742
H          1.45550        3.30382       -1.23972
H          0.29069        3.08306       -2.53887
H          1.45466        1.80686       -2.17360
H          2.24295        1.72530        0.12277
H          1.78548        0.79643        1.50490
H         -0.15157       -0.03807        1.79915
H         -0.47236       -2.01318        0.59336
H         -2.09535       -3.59487       -0.32258
H         -4.37160       -2.82842       -0.92802
H         -4.98079       -0.45530       -0.60378
H         -3.34821        1.12819        0.29290
H         -1.91505        2.40818        1.53842
H         -0.55527        2.18558        2.62270
H         -2.00488        1.21089        2.82615
H          4.80911       -1.98530       -0.89295
H          3.82611       -0.81768        2.11878
H          3.15208       -2.35039       -1.37372
H          4.04545        0.71210        1.26996
H          3.76361       -2.91242        0.18108
H          5.15638       -0.59978        0.99398
