38
../min.omega.0.chi1.135.phi1.120.log	Energy: -505588.1645859
N          1.47402       -0.14810        0.06823
C          3.45898        0.63769        1.35274
C          2.80989       -0.30601        0.35724
C          0.73186       -0.94763       -0.93298
C          1.44251       -2.15765       -1.54038
C         -0.61202       -1.39258       -0.36068
C         -1.80399       -1.03238       -1.00061
C         -3.03105       -1.46404       -0.51709
C         -3.09271       -2.26334        0.62306
C         -1.91842       -2.62703        1.26743
C         -0.68582       -2.19596        0.77659
C          0.70043        0.89684        0.69987
O          3.50594       -1.18354       -0.13399
C          0.08195        1.90135       -0.29813
C         -1.63085        3.55688       -0.77327
C         -1.64546        2.41513        1.41984
N         -0.96798        2.65087        0.15513
O          0.56132        2.04963       -1.41050
H          3.42009        1.66789        1.01673
H          4.49120        0.33439        1.43328
H          2.99848        0.57717        2.33295
H         -0.07869        0.45400        1.30106
H          1.31294        1.48037        1.36590
H          0.52312       -0.27290       -1.74943
H         -1.76464       -0.41357       -1.88020
H         -3.93597       -1.18073       -1.02477
H         -4.04334       -2.59762        0.99827
H         -1.95481       -3.24677        2.14572
H          0.21831       -2.48472        1.28322
H          1.72380       -2.89316       -0.80086
H          2.32629       -1.87401       -2.08767
H          0.73673       -2.61509       -2.22718
H         -2.59347        3.15774       -1.08167
H         -0.94378        2.29513        2.23373
H         -1.00971        3.69100       -1.64129
H         -2.29621        1.54639        1.38273
H         -1.79209        4.51599       -0.29432
H         -2.25047        3.28278        1.64452
