38
../min.omega.0.chi1.90.phi1.150.log	Energy: -505588.0197693
N         -0.03629        1.39968        0.04207
C         -0.31313        3.11478       -1.73966
C         -0.75638        2.46825       -0.44027
C         -0.56743        0.50358        1.09439
C         -1.32135        1.18860        2.23478
C         -1.33667       -0.66723        0.48697
C         -0.88408       -1.97716        0.68519
C         -1.56751       -3.05972        0.14967
C         -2.72294       -2.85258       -0.60182
C         -3.18388       -1.55899       -0.80327
C         -2.49757       -0.47253       -0.26048
C          1.11305        0.92548       -0.69512
O         -1.78071        2.87154        0.09260
C          2.21070        0.29841        0.19343
C          3.98037       -1.34318        0.46884
C          2.51812       -1.48652       -1.52709
N          2.85590       -0.80741       -0.28662
O          2.51803        0.83561        1.24516
H          0.64559        3.61326       -1.64462
H         -1.06118        3.84939       -1.99483
H         -0.23821        2.38529       -2.53841
H          0.80742        0.23784       -1.47256
H          1.61416        1.75324       -1.17378
H          0.31041        0.09143        1.56114
H          0.00490       -2.14803        1.26813
H         -1.20534       -4.05868        0.31697
H         -3.25464       -3.68954       -1.01792
H         -4.07840       -1.38902       -1.37575
H         -2.87127        0.52323       -0.41323
H         -2.31120        1.51021        1.96056
H         -0.76411        2.04691        2.58873
H         -1.39744        0.47131        3.04660
H          3.78328       -2.37090        0.75633
H          3.18057       -2.33358       -1.63295
H          4.12746       -0.74891        1.35310
H          2.65895       -0.85232       -2.39577
H          4.88304       -1.31986       -0.13333
H          1.50238       -1.86161       -1.52205
