38
../min.omega.0.chi1.300.phi1.210.log	Energy: -505583.1718658
N          0.16184        1.20357       -0.18657
C         -0.38704        2.70149        1.75051
C         -0.65343        2.17121        0.35382
C         -0.53978        0.32783       -1.15265
C          0.35357       -0.62151       -1.95188
C         -1.71375       -0.41631       -0.52054
C         -3.02876       -0.04214       -0.82187
C         -4.10794       -0.72607       -0.28019
C         -3.89967       -1.79938        0.58426
C         -2.60200       -2.18289        0.89310
C         -1.52089       -1.49784        0.33816
C          1.26139        0.72474        0.62028
O         -1.62329        2.59471       -0.25926
C          2.49848        0.25401       -0.17697
C          4.42273       -1.21324       -0.36282
C          2.86028       -1.52779        1.53412
N          3.18723       -0.82475        0.30412
O          2.87714        0.89496       -1.14390
H         -0.33120        1.89653        2.47491
H         -1.21087        3.35203        2.00008
H          0.53387        3.27242        1.80357
H          1.64599        1.54250        1.20974
H          0.93516       -0.03974        1.31409
H         -0.95944        1.01536       -1.86803
H         -3.19940        0.79919       -1.46596
H         -5.10918       -0.41976       -0.52542
H         -4.73679       -2.32666        1.00568
H         -2.42577       -3.01414        1.55274
H         -0.52587       -1.83185        0.57248
H          0.84052       -1.37387       -1.34150
H          1.10804       -0.07880       -2.49986
H         -0.28195       -1.14834       -2.65467
H          5.28455       -0.98177        0.25624
H          1.91558       -2.05507        1.46880
H          4.50472       -0.67956       -1.29288
H          2.83459       -0.86762        2.39412
H          4.41296       -2.27962       -0.55906
H          3.63119       -2.26314        1.71334
