38
../min.omega.180.chi1.255.phi1.330.log	Energy: -505589.9124884
N          0.20419        0.87910        0.06724
C          0.18012        2.18149        2.20048
C          0.83147        1.19315        1.25084
C         -1.15659        1.34788       -0.28063
C         -1.16488        2.08869       -1.61825
C         -2.18837        0.22945       -0.15395
C         -2.10013       -0.69258        0.89587
C         -3.05857       -1.68141        1.06739
C         -4.13647       -1.77514        0.18875
C         -4.23704       -0.86882       -0.85762
C         -3.27069        0.12297       -1.02660
C          0.81328       -0.06069       -0.84660
O          1.88306        0.65717        1.57135
C          2.35776       -0.09319       -0.81330
C          4.44649       -1.22606       -0.55339
C          2.48508       -2.16110        0.55161
N          2.99272       -1.25259       -0.46375
O          2.95287        0.86137       -1.28639
H          0.01978        3.14588        1.73237
H          0.85225        2.30130        3.03627
H         -0.77360        1.81460        2.56241
H          0.38463       -1.04500       -0.71791
H          0.59607        0.25324       -1.85530
H         -1.41414        2.08465        0.46347
H         -1.27270       -0.64831        1.57984
H         -2.96435       -2.37783        1.88129
H         -4.87870       -2.54177        0.31889
H         -5.06016       -0.92845       -1.54691
H         -3.37803        0.80660       -1.84676
H         -1.11256        1.42503       -2.47236
H         -0.31871        2.76366       -1.65830
H         -2.07025        2.67718       -1.71443
H          4.88564       -0.70583        0.29328
H          2.81126       -3.16771        0.31662
H          4.74749       -0.72673       -1.45929
H          1.40857       -2.15739        0.58774
H          4.80975       -2.24664       -0.56734
H          2.85311       -1.88827        1.53472
