38
../min.omega.0.chi1.195.phi1.120.log	Energy: -505589.5699630
N          1.65807       -0.03239       -0.03512
C          3.75672        1.33064        0.01600
C          3.00538        0.05090       -0.30126
C          1.10972       -1.40644        0.02627
C          1.66823       -2.14841        1.24104
C         -0.41454       -1.46740       -0.04017
C         -1.03682       -1.50098       -1.29385
C         -2.41468       -1.61962       -1.40889
C         -3.20695       -1.71008       -0.26575
C         -2.60593       -1.68077        0.98498
C         -1.22009       -1.56406        1.09386
C          0.92312        1.06967        0.54333
O          3.62221       -0.90861       -0.74254
C         -0.22728        1.56407       -0.36206
C         -2.41462        2.59640       -0.58044
C         -1.47017        2.28439        1.67910
N         -1.27979        2.19561        0.24038
O         -0.12236        1.46962       -1.57418
H          3.35564        2.18622       -0.51521
H          4.78137        1.17737       -0.28587
H          3.72865        1.54117        1.08006
H          0.54810        0.78415        1.51687
H          1.57000        1.91829        0.69620
H          1.48292       -1.89961       -0.85600
H         -0.43487       -1.41421       -2.17917
H         -2.86834       -1.64314       -2.38328
H         -4.27429       -1.80916       -0.35255
H         -3.20451       -1.76175        1.87504
H         -0.78060       -1.56650        2.07409
H          1.44072       -1.63475        2.17048
H          2.74196       -2.23390        1.15745
H          1.25127       -3.14802        1.29935
H         -3.27397        1.96447       -0.37699
H         -2.18033        3.07629        1.87577
H         -2.14725        2.50709       -1.61840
H         -0.55348        2.54569        2.18945
H         -2.67937        3.62571       -0.36359
H         -1.86305        1.36406        2.10027
