38
../min.omega.180.chi1.180.phi1.30.log	Energy: -505583.7569701
N         -0.21436        0.90506       -0.31005
C         -1.07987        3.23784       -0.65116
C         -1.28879        1.76295       -0.36144
C          1.13894        1.40860        0.01787
C          1.15300        2.17191        1.34274
C          2.18443        0.29575        0.02168
C          2.74700       -0.08676       -1.20193
C          3.71467       -1.07904       -1.27135
C          4.14824       -1.71096       -0.10716
C          3.60405       -1.33846        1.11412
C          2.63041       -0.34153        1.17894
C         -0.47869       -0.48811       -0.02983
O         -2.43504        1.37719       -0.17939
C         -1.84894       -1.01541       -0.51145
C         -3.94433       -2.10053       -0.13620
C         -2.91218       -0.91962        1.72717
N         -2.73071       -1.50817        0.41008
O         -2.00789       -1.17134       -1.71128
H         -1.34656        3.80311        0.23296
H         -1.78634        3.50124       -1.42758
H         -0.08676        3.51383       -0.96997
H          0.22166       -1.08881       -0.58560
H         -0.32488       -0.70618        1.01920
H          1.43126        2.08867       -0.77007
H          2.41464        0.39249       -2.10622
H          4.12945       -1.35632       -2.22355
H          4.89930       -2.47858       -0.15479
H          3.93213       -1.81684        2.01942
H          2.23153       -0.07637        2.13946
H          0.75167        1.56974        2.15029
H          0.56229        3.07531        1.29169
H          2.16562        2.45836        1.60337
H         -4.40301       -2.71465        0.62961
H         -3.66621       -0.14020        1.70389
H         -3.70012       -2.71357       -0.98771
H         -1.99932       -0.48441        2.09824
H         -4.65200       -1.33752       -0.44853
H         -3.22314       -1.69413        2.41900
