38
../min.omega.0.chi1.300.phi1.360.log	Energy: -505582.8626781
N          0.25601        0.60403        0.16334
C          1.31410       -0.89174        1.91561
C          0.24558        0.07110        1.43176
C         -1.00079        1.29335       -0.20786
C         -0.93542        2.04694       -1.53675
C         -2.21767        0.37186       -0.16845
C         -3.42746        0.84863        0.35034
C         -4.56988        0.06110        0.32849
C         -4.52630       -1.22392       -0.20954
C         -3.33102       -1.70918       -0.72165
C         -2.18453       -0.91461       -0.70526
C          1.20551        0.38650       -0.90457
O         -0.64395        0.38945        2.20845
C          2.41368       -0.55529       -0.70231
C          4.78360       -0.84606       -0.23386
C          3.73351        1.32238        0.28969
N          3.59381       -0.00690       -0.28263
O          2.31422       -1.72537       -1.03424
H          1.37878       -1.77064        1.29003
H          1.02393       -1.17793        2.91485
H          2.29021       -0.42676        1.95773
H          0.70589       -0.07580       -1.74271
H          1.58190        1.34007       -1.24769
H         -1.15782        2.03681        0.56002
H         -3.46629        1.83091        0.78765
H         -5.48823        0.44170        0.73901
H         -5.41012       -1.83625       -0.22094
H         -3.28335       -2.70147       -1.13375
H         -1.26643       -1.31481       -1.09782
H         -0.84155        1.39403       -2.39563
H         -0.12695        2.77027       -1.55327
H         -1.86407        2.59309       -1.65085
H          5.63527       -0.27673       -0.58891
H          2.77290        1.77623        0.47443
H          4.63986       -1.70882       -0.86115
H          4.30958        1.96870       -0.36527
H          4.98609       -1.17497        0.78166
H          4.25202        1.25357        1.24013
