38
../min.omega.0.chi1.300.phi1.330.log	Energy: -505582.9594996
N          0.19629       -0.71825        0.35020
C          1.26707       -1.10519       -1.91040
C          0.14268       -1.27718       -0.90588
C         -1.07648       -0.78736        1.10371
C         -0.96926       -0.33567        2.56062
C         -2.22358       -0.06765        0.39826
C         -3.41045       -0.75024        0.10591
C         -4.48666       -0.09007       -0.47007
C         -4.39869        1.26719       -0.77463
C         -3.22571        1.95482       -0.49589
C         -2.14876        1.29047        0.09137
C          1.26869        0.08157        0.89750
O         -0.82307       -1.95569       -1.22652
C          2.69766       -0.20708        0.38534
C          4.86403        0.62565       -0.32962
C          2.94468        2.18344       -0.31909
N          3.44975        0.84524       -0.05799
O          3.14844       -1.33554        0.49726
H          1.66689       -0.09978       -1.94132
H          0.84806       -1.34814       -2.87543
H          2.07212       -1.79077       -1.68687
H          1.03781        1.13578        0.82785
H          1.36540       -0.14627        1.94748
H         -1.34102       -1.83445        1.12498
H         -3.47625       -1.80348        0.30899
H         -5.38767       -0.63334       -0.69274
H         -5.23169        1.77586       -1.22593
H         -3.14532        3.00231       -0.72725
H         -1.25069        1.84320        0.30734
H         -0.72013        0.71418        2.66629
H         -0.24691       -0.92696        3.11279
H         -1.93727       -0.48451        3.02389
H          5.06277        0.68279       -1.39543
H          2.88166        2.78410        0.58343
H          5.14808       -0.34747        0.03019
H          1.97525        2.16463       -0.79709
H          5.45461        1.38350        0.17391
H          3.62765        2.67355       -0.99933
