38
../min.omega.0.chi1.300.phi1.120.log	Energy: -505588.4766056
N         -0.23046        1.08830        0.28242
C         -0.64701        3.12638       -1.11605
C          0.28482        2.16575       -0.40066
C          0.72302        0.36272        1.15242
C          0.06118       -0.71432        2.01269
C          1.92677       -0.23063        0.42412
C          3.19218       -0.09152        1.00673
C          4.30992       -0.68527        0.43758
C          4.18493       -1.42778       -0.73532
C          2.93496       -1.56706       -1.32234
C          1.80878       -0.97823       -0.74697
C         -1.65478        0.84777        0.33481
O          1.47813        2.42963       -0.35356
C         -2.13338       -0.49975       -0.25062
C         -3.91273       -2.09462       -0.59018
C         -4.44700        0.02559        0.52171
N         -3.41561       -0.87743        0.03714
O         -1.40158       -1.19029       -0.94111
H         -1.26106        2.64192       -1.86704
H         -0.02293        3.86399       -1.59628
H         -1.29918        3.62727       -0.40793
H         -2.00195        0.92339        1.35701
H         -2.17099        1.61996       -0.21076
H          1.12177        1.10962        1.82972
H          3.30421        0.49817        1.90016
H          5.27408       -0.56136        0.89833
H          5.05031       -1.88401       -1.18249
H          2.82722       -2.13610       -2.22910
H          0.84745       -1.09904       -1.20486
H         -0.32187       -1.53194        1.41798
H         -0.73292       -0.31908        2.63822
H          0.81752       -1.11886        2.67424
H         -4.66150       -2.53900        0.05395
H         -4.98854        0.49175       -0.29853
H         -3.10086       -2.78748       -0.72789
H         -4.04207        0.80166        1.15052
H         -4.36344       -1.88740       -1.55726
H         -5.15512       -0.53856        1.11501
