38
../min.omega.0.chi1.150.phi1.60.log	Energy: -505587.5172132
N         -0.16805        1.04783        0.26007
C         -2.34542        2.06528        0.98934
C         -0.91442        2.17907        0.49719
C          0.93550        1.02093       -0.72682
C          1.61970        2.34796       -1.05692
C          2.00155        0.01595       -0.29665
C          2.46407       -0.95154       -1.19671
C          3.47470       -1.83235       -0.83810
C          4.04269       -1.76621        0.43299
C          3.59149       -0.81239        1.33468
C          2.57792        0.07470        0.97166
C         -0.75665       -0.25337        0.48312
O         -0.47397        3.30663        0.32269
C         -2.01275       -0.54593       -0.36787
C         -4.00257       -1.90437       -0.73137
C         -2.49832       -2.46990        1.14461
N         -2.76621       -1.62984       -0.01149
O         -2.27635        0.14802       -1.33643
H         -2.99362        2.04955        0.12434
H         -2.54990        2.95634        1.56472
H         -2.56093        1.19605        1.59652
H         -0.02506       -1.01192        0.25425
H         -0.99015       -0.37225        1.53291
H          0.50087        0.65158       -1.65138
H          2.02997       -1.01148       -2.17995
H          3.81730       -2.56884       -1.54301
H          4.82448       -2.44973        0.71184
H          4.02479       -0.75187        2.31724
H          2.23354        0.81036        1.67629
H          2.03776        2.81853       -0.17838
H          0.94917        3.04643       -1.52896
H          2.42924        2.12050       -1.74355
H         -3.98834       -2.91669       -1.12113
H         -2.96645       -2.08617        2.04764
H         -4.09841       -1.20963       -1.54715
H         -1.43910       -2.58377        1.32053
H         -4.85703       -1.80148       -0.06872
H         -2.90058       -3.45565        0.95091
