38
../min.omega.180.chi1.255.phi1.240.log	Energy: -505592.5934517
N         -0.14089        1.29643        0.03919
C          0.84689        3.58744        0.10808
C          0.01320        2.51846       -0.57393
C          0.82651        0.81615        1.05208
C          0.16867        0.46109        2.38598
C          1.74136       -0.26578        0.48288
C          2.53825        0.03311       -0.62872
C          3.40427       -0.90690       -1.16927
C          3.49519       -2.17884       -0.60665
C          2.71166       -2.49098        0.49566
C          1.84249       -1.54231        1.03472
C         -0.94773        0.32848       -0.66891
O         -0.54215        2.78721       -1.62996
C         -2.19136       -0.14445        0.11677
C         -4.00276       -1.76164        0.30682
C         -2.42940       -1.94868       -1.58847
N         -2.86654       -1.20700       -0.41678
O         -2.56560        0.42278        1.13036
H          0.61568        3.67218        1.16268
H          0.62229        4.52016       -0.38655
H          1.90900        3.39232        0.00491
H         -1.28409        0.78332       -1.58638
H         -0.34324       -0.53042       -0.92922
H          1.46922        1.65480        1.26196
H          2.47834        1.00676       -1.08241
H          4.00572       -0.64970       -2.02269
H          4.16601       -2.90923       -1.02183
H          2.77157       -3.46797        0.94106
H          1.25265       -1.81190        1.88957
H         -0.46826       -0.40876        2.33090
H         -0.44896        1.28543        2.71325
H          0.93983        0.27994        3.12846
H         -4.86435       -1.82374       -0.34940
H         -1.70710       -2.72241       -1.33981
H         -4.23512       -1.12357        1.14111
H         -2.00065       -1.29872       -2.33646
H         -3.77426       -2.75994        0.67070
H         -3.29374       -2.42529       -2.03208
