38
../min.omega.180.chi1.240.phi1.240.log	Energy: -505593.0680177
N         -0.12868        1.37860       -0.04962
C          0.67094        3.74160        0.01010
C         -0.13975        2.62774       -0.62628
C          0.91534        0.98657        0.92446
C          0.39758        0.87005        2.35849
C          1.71001       -0.22119        0.43321
C          2.57154       -0.06173       -0.65876
C          3.32109       -1.12369       -1.14481
C          3.22612       -2.37757       -0.54363
C          2.37769       -2.55067        0.54109
C          1.62534       -1.48056        1.02574
C         -0.92337        0.36772       -0.70985
O         -0.81064        2.87816       -1.61777
C         -2.03858       -0.24064        0.16980
C         -3.69005       -2.00758        0.45119
C         -2.29814       -1.98559       -1.59031
N         -2.68406       -1.32676       -0.35296
O         -2.34731        0.24390        1.24640
H          0.57810        3.75937        1.08827
H          0.30213        4.66936       -0.40029
H          1.72270        3.65197       -0.24212
H         -1.39049        0.82893       -1.56477
H         -0.28470       -0.42553       -1.07219
H          1.62564        1.79707        0.93171
H          2.65253        0.90099       -1.13365
H          3.97785       -0.97539       -1.98320
H          3.80773       -3.20191       -0.91525
H          2.29836       -3.51248        1.01555
H          0.97995       -1.64002        1.86855
H         -0.31606        0.07377        2.48967
H         -0.10452        1.78831        2.63619
H          1.23617        0.71551        3.03113
H         -4.59668       -2.14062       -0.12908
H         -1.48122       -2.68808       -1.44485
H         -3.90747       -1.41379        1.32144
H         -2.01490       -1.27318       -2.35080
H         -3.33451       -2.98589        0.76419
H         -3.15237       -2.53445       -1.96416
