38
../min.omega.0.chi1.15.phi1.120.log	Energy: -505582.1556368
N         -0.23795        0.49744       -0.23512
C         -0.26018        3.00021       -0.35703
C          0.38336        1.65572       -0.64179
C          0.52713       -0.74193        0.03154
C          0.17682       -1.83348       -0.98035
C          2.03841       -0.58109        0.17871
C          2.54041       -0.19919        1.42859
C          3.90467       -0.10383        1.66413
C          4.80645       -0.40570        0.64515
C          4.32479       -0.79415       -0.59723
C          2.95224       -0.88101       -0.83087
C         -1.50213        0.56770        0.46217
O          1.43470        1.63709       -1.26643
C         -2.65800       -0.16323       -0.25705
C         -4.87959       -1.09608       -0.21253
C         -4.08600        0.10185        1.77092
N         -3.75099       -0.50200        0.49140
O         -2.59333       -0.41017       -1.45036
H         -1.22559        3.09773       -0.84138
H          0.40561        3.74903       -0.75698
H         -0.38859        3.17283        0.70647
H         -1.38559        0.16194        1.45980
H         -1.82481        1.58849        0.58377
H          0.18188       -1.07845        1.00257
H          1.85340        0.02220        2.22867
H          4.26318        0.19247        2.63397
H          5.86529       -0.34001        0.82123
H          5.01062       -1.02493       -1.39276
H          2.60819       -1.16008       -1.80722
H          0.38157       -1.50135       -1.98986
H         -0.87007       -2.09071       -0.93800
H          0.75934       -2.72577       -0.77678
H         -5.43432       -1.71739        0.47988
H         -4.72010        0.97685        1.64476
H         -4.52002       -1.69946       -1.02808
H         -3.20771        0.39404        2.32288
H         -5.54643       -0.33515       -0.60977
H         -4.62462       -0.62063        2.37108
