38
../min.omega.180.chi1.210.phi1.180.log	Energy: -505588.3207987
N          1.59909        0.00104       -0.14841
C          3.46693       -1.47321       -0.91301
C          2.93600       -0.13061       -0.44564
C          0.95142       -1.15110        0.51910
C          1.26765       -1.18635        2.01472
C         -0.53183       -1.28165        0.18083
C         -0.88385       -1.52506       -1.15217
C         -2.20354       -1.74338       -1.52171
C         -3.20710       -1.72981       -0.55459
C         -2.87264       -1.49375        0.77162
C         -1.54506       -1.27279        1.13871
C          1.29545        1.34902        0.27594
O          3.69062        0.83165       -0.42453
C         -0.16880        1.67129        0.64969
C         -2.36885        2.49746       -0.00097
C         -0.73079        1.98848       -1.76759
N         -1.02230        2.06084       -0.34497
O         -0.49100        1.67640        1.82669
H          3.64408       -2.14278       -0.07812
H          4.41108       -1.28370       -1.40122
H          2.79085       -1.96121       -1.60421
H          1.84960        1.60243        1.16989
H          1.63101        2.02413       -0.49337
H          1.40708       -2.02406        0.08133
H         -0.11460       -1.54501       -1.90456
H         -2.44764       -1.93321       -2.55184
H         -4.23082       -1.90480       -0.83340
H         -3.63805       -1.47911        1.52659
H         -1.31863       -1.07594        2.16744
H          0.84457       -0.34204        2.54073
H          2.34314       -1.17111        2.16320
H          0.88656       -2.09933        2.45935
H         -2.59049        3.42487       -0.51952
H          0.16917        1.42778       -1.95611
H         -2.43165        2.65688        1.06142
H         -0.62587        2.98344       -2.19114
H         -3.09888        1.75063       -0.29557
H         -1.54493        1.48339       -2.27406
