38
../min.omega.180.chi1.210.phi1.360.log	Energy: -505586.8104343
N         -0.22677        0.74927       -0.23721
C         -0.84643        3.07217       -0.89901
C         -1.18843        1.60398       -0.72475
C          1.01170        1.26328        0.39085
C          0.77840        1.63741        1.85499
C          2.17728        0.29890        0.18373
C          2.65143        0.10587       -1.11933
C          3.72079       -0.74039       -1.37649
C          4.34672       -1.41147       -0.32744
C          3.89027       -1.22588        0.97011
C          2.81325       -0.37659        1.22465
C         -0.49290       -0.65900       -0.04947
O         -2.30115        1.21105       -1.04616
C         -1.88873       -1.21902       -0.40390
C         -4.16699       -1.73670        0.14658
C         -2.93513       -0.19802        1.59785
N         -2.87310       -1.19874        0.54488
O         -2.00472       -1.84725       -1.44362
H         -0.57083        3.54939        0.03292
H         -1.72745        3.55304       -1.29534
H         -0.02884        3.20174       -1.59965
H          0.16971       -1.23049       -0.67937
H         -0.27239       -0.92946        0.97713
H          1.27782        2.16535       -0.13791
H          2.16953        0.61394       -1.93646
H          4.06444       -0.87592       -2.38604
H          5.17602       -2.06716       -0.52207
H          4.36541       -1.73780        1.78755
H          2.48534       -0.25346        2.23913
H          0.48550        0.78249        2.45303
H         -0.01060        2.37566        1.93483
H          1.67675        2.06049        2.29105
H         -4.72974       -1.98344        1.03918
H         -3.51356        0.66587        1.28792
H         -4.02327       -2.62607       -0.44344
H         -1.94763        0.13514        1.87562
H         -4.72961       -1.01443       -0.43848
H         -3.39786       -0.63611        2.47469
