38
../min.omega.0.chi1.270.phi1.30.log	Energy: -505586.5984528
N         -0.19206        0.98931        0.42275
C         -1.64251        1.82828       -1.46075
C         -0.39181        1.88412       -0.60312
C          1.12913        1.02191        1.09049
C          1.00694        0.87094        2.60720
C          2.13201        0.08322        0.42370
C          2.78518        0.50031       -0.74225
C          3.69910       -0.32669       -1.37993
C          3.98475       -1.59058       -0.86650
C          3.34922       -2.01420        0.29241
C          2.43237       -1.17990        0.93222
C         -1.07072       -0.08176        0.83514
O          0.44551        2.73705       -0.86250
C         -1.95998       -0.74440       -0.24082
C         -4.09490       -1.71880       -0.86839
C         -3.98417       -0.32558        1.17136
N         -3.28998       -0.90508        0.03280
O         -1.43782       -1.19251       -1.24864
H         -1.51832        1.07050       -2.22132
H         -1.73731        2.79683       -1.92881
H         -2.54587        1.61302       -0.90478
H         -0.45112       -0.91170        1.14720
H         -1.64822        0.22172        1.69628
H          1.48670        2.02199        0.91985
H          2.56837        1.47091       -1.14593
H          4.19029        0.01408       -2.27393
H          4.69408       -2.22963       -1.36134
H          3.56335       -2.98477        0.70344
H          1.96785       -1.52813        1.83679
H          0.64321       -0.09569        2.93365
H          0.33561        1.62915        2.99660
H          1.98135        1.01983        3.05840
H         -4.61118       -2.49005       -0.30631
H         -3.70588        0.70677        1.33326
H         -3.45342       -2.17787       -1.59962
H         -3.81580       -0.88400        2.08733
H         -4.83410       -1.10715       -1.37623
H         -5.04461       -0.34282        0.96127
