38
../min.omega.0.chi1.150.phi1.270.log	Energy: -505588.1303609
N         -1.54803       -0.29168        0.34293
C         -3.51902        1.21420        0.18900
C         -2.86930       -0.14259       -0.01068
C         -0.88184       -1.60533        0.49459
C         -1.47902       -2.77402       -0.29003
C          0.60527       -1.51251        0.16082
C          1.56079       -1.89255        1.11088
C          2.91456       -1.88617        0.80578
C          3.34152       -1.49484       -0.46198
C          2.40367       -1.11717       -1.41288
C          1.04277       -1.12963       -1.10657
C         -0.81951        0.83115        0.88866
O         -3.55850       -1.06133       -0.43112
C         -0.11757        1.68787       -0.18879
C          1.66269        3.21259       -0.80535
C          1.57919        2.34214        1.50546
N          0.92825        2.47227        0.21187
O         -0.55460        1.70897       -1.32796
H         -3.63237        1.42894        1.24742
H         -4.50041        1.15635       -0.25609
H         -2.95916        2.01403       -0.27552
H         -1.46753        1.49490        1.44478
H         -0.10153        0.45440        1.59801
H         -0.94734       -1.86337        1.55011
H          1.24073       -2.20093        2.09154
H          3.63262       -2.18571        1.54841
H          4.38987       -1.48896       -0.70127
H          2.72201       -0.81530       -2.39465
H          0.32842       -0.82081       -1.84611
H         -1.54161       -2.55489       -1.34719
H         -2.46272       -3.04010        0.05587
H         -0.81426       -3.62117       -0.15466
H          1.92439        4.19124       -0.42029
H          2.21698        1.46478        1.56074
H          1.04345        3.32528       -1.67795
H          0.85878        2.30779        2.31106
H          2.57493        2.69113       -1.08250
H          2.19288        3.21836        1.66390
