38
../min.omega.180.chi1.135.phi1.300.log	Energy: -505588.0834765
N          0.21213        1.02867        0.21662
C          0.58848        3.13310       -1.16183
C          1.06878        1.91598       -0.39317
C         -1.17260        1.20998        0.70869
C         -1.87707        2.52995        0.39319
C         -2.06554        0.04298        0.29362
C         -3.09310       -0.36433        1.15284
C         -3.97033       -1.37497        0.78557
C         -3.82989       -2.00245       -0.45104
C         -2.80622       -1.61398       -1.30404
C         -1.92532       -0.59623       -0.93765
C          0.90714       -0.04787        0.88543
O          2.27382        1.71803       -0.32579
C          1.76825       -0.87118       -0.09855
C          3.75687       -2.12851       -0.60095
C          3.65605       -0.82835        1.49967
N          2.94942       -1.38672        0.35820
O          1.32790       -1.13079       -1.20663
H         -0.29274        2.94169       -1.75457
H          1.40354        3.41581       -1.81128
H          0.39084        3.95713       -0.48868
H          1.48905        0.33829        1.70854
H          0.17486       -0.73855        1.28080
H         -1.09501        1.17880        1.79297
H         -3.20542        0.11024        2.11350
H         -4.75274       -1.67648        1.45902
H         -4.50447       -2.78965       -0.73665
H         -2.67981       -2.10409       -2.25260
H         -1.11098       -0.33657       -1.58510
H         -2.09657        2.64566       -0.65859
H         -1.32007        3.38829        0.74557
H         -2.82450        2.51930        0.91812
H          4.42075       -1.46980       -1.15459
H          4.57833       -1.37784        1.62556
H          3.11007       -2.63244       -1.29820
H          3.08955       -0.94355        2.41533
H          4.35208       -2.86139       -0.06998
H          3.89555        0.21888        1.35587
