38
../min.omega.180.chi1.285.phi1.330.log	Energy: -505588.5513514
N         -0.22728       -0.75642        0.07865
C          0.43577       -0.99398        2.47259
C         -0.53908       -0.54124        1.40133
C          1.10161       -1.27887       -0.31323
C          1.09152       -1.95085       -1.68672
C          2.22145       -0.24474       -0.22358
C          3.54013       -0.69303       -0.08156
C          4.59991        0.20130       -0.02839
C          4.36314        1.57221       -0.11314
C          3.05972        2.03053       -0.24524
C          1.99624        1.12929       -0.29835
C         -1.15425       -0.32607       -0.94353
O         -1.56407        0.04272        1.72419
C         -2.63973       -0.33722       -0.51833
C         -4.76705        0.71100       -0.23008
C         -2.77466        2.11012       -0.14090
N         -3.34740        0.83263       -0.53336
O         -3.17750       -1.42440       -0.38411
H          0.55023       -2.07257        2.46812
H          0.02329       -0.68953        3.42222
H          1.41169       -0.54589        2.34050
H         -0.86611        0.63337       -1.35349
H         -1.13843       -1.03524       -1.75299
H          1.33853       -2.06253        0.39292
H          3.73810       -1.74884       -0.00583
H          5.60392       -0.16662        0.08482
H          5.18188        2.26739       -0.06935
H          2.86274        3.08604       -0.30343
H          0.99588        1.50806       -0.38452
H          0.95381       -1.24088       -2.49313
H          0.31898       -2.70924       -1.74258
H          2.04846       -2.43375       -1.84279
H         -4.93507        0.59082        0.83647
H         -3.28930        2.90301       -0.67118
H         -5.17815       -0.14280       -0.74252
H         -1.72719        2.16870       -0.38538
H         -5.26970        1.60943       -0.56756
H         -2.87646        2.27025        0.92676
