38
../min.omega.0.chi1.255.phi1.270.log	Energy: -505596.0637830
N         -0.12489        1.02638        0.08408
C         -1.01368        2.86676       -1.32548
C         -0.11879        2.37166       -0.20435
C          0.79126        0.51540        1.12909
C          0.03981       -0.26547        2.20783
C          1.96840       -0.22153        0.49444
C          2.89466        0.52153       -0.24716
C          3.98102       -0.09215       -0.85463
C          4.16789       -1.46805       -0.73370
C          3.26070       -2.21614        0.00372
C          2.17046       -1.59596        0.61430
C         -0.94327        0.07478       -0.63288
O          0.61324        3.15426        0.38516
C         -2.34213       -0.12505       -0.00773
C         -4.34141       -1.49669        0.20700
C         -2.52409       -2.26127       -1.27948
N         -3.05434       -1.21847       -0.41608
O         -2.79079        0.69726        0.77437
H         -0.66731        2.49125       -2.28334
H         -0.95303        3.94432       -1.33297
H         -2.04225        2.56261       -1.18030
H         -1.07903        0.37474       -1.66329
H         -0.40795       -0.86370       -0.66233
H          1.18427        1.40272        1.59463
H          2.76154        1.58484       -0.33564
H          4.68321        0.49944       -1.41466
H          5.01083       -1.94431       -1.20163
H          3.39734       -3.27765        0.11109
H          1.49178       -2.19691        1.19069
H         -0.42749       -1.17116        1.83457
H         -0.73727        0.35736        2.62900
H          0.72654       -0.55278        2.99678
H         -5.08994       -1.67156       -0.55812
H         -1.97215       -3.01513       -0.72348
H         -4.63308       -0.65280        0.80705
H         -1.88352       -1.85693       -2.04920
H         -4.27886       -2.37947        0.83732
H         -3.35354       -2.74918       -1.77419
