38
../min.omega.0.chi1.30.phi1.210.log	Energy: -505582.1551649
N          0.26971        0.94253        0.02632
C          0.22730        3.31805       -0.70552
C         -0.48024        2.07410       -0.19978
C         -0.30870       -0.32522        0.52706
C          0.04092       -0.48084        2.00755
C         -1.79307       -0.54239        0.24142
C         -2.15154       -0.91880       -1.05872
C         -3.46830       -1.21572       -1.38163
C         -4.45683       -1.15903       -0.40046
C         -4.11108       -0.80243        0.89577
C         -2.78826       -0.49693        1.21725
C          1.69497        0.99459       -0.20881
O         -1.67404        2.14606        0.05761
C          2.34113       -0.34991       -0.61252
C          4.17390       -1.92921       -0.44997
C          4.13912        0.00241        1.08969
N          3.46461       -0.75923        0.05083
O          1.87189       -0.97266       -1.55131
H          1.06036        3.59889       -0.07082
H         -0.50372        4.11153       -0.70363
H          0.60023        3.18981       -1.71633
H          1.90932        1.62187       -1.06099
H          2.20436        1.42964        0.64014
H          0.19041       -1.10686       -0.01677
H         -1.38826       -0.97686       -1.81555
H         -3.72188       -1.49850       -2.38793
H         -5.47761       -1.39345       -0.64485
H         -4.86530       -0.75584        1.66126
H         -2.55410       -0.20879        2.22402
H         -0.38032        0.32368        2.59934
H          1.11692       -0.46710        2.14963
H         -0.32557       -1.42546        2.39378
H          5.11519       -1.64012       -0.90847
H          3.46977        0.27614        1.89318
H          3.56370       -2.42839       -1.18125
H          4.61483        0.89937        0.70424
H          4.38171       -2.60789        0.36938
H          4.91098       -0.62412        1.51319
