38
../min.omega.0.chi1.150.phi1.210.log	Energy: -505578.0799120
N         -1.65174        0.00585       -0.08352
C         -3.89520        1.12399       -0.20998
C         -3.01676       -0.11344       -0.20808
C         -0.91162       -0.98403        0.73185
C         -1.55670       -2.35517        0.93672
C          0.51684       -1.20924        0.24166
C          1.55976       -1.30170        1.17108
C          2.84673       -1.63094        0.76968
C          3.11375       -1.87887       -0.57564
C          2.08676       -1.79640       -1.50564
C          0.79275       -1.46894       -1.10024
C         -1.16124        1.35997        0.03932
O         -3.57055       -1.19557       -0.34278
C          0.25366        1.63472       -0.51758
C          2.46564        2.57729       -0.33020
C          1.24801        2.14751        1.74456
N          1.20742        2.18700        0.29169
O          0.42113        1.51604       -1.72050
H         -3.69257        1.78388        0.62531
H         -4.91461        0.77480       -0.15465
H         -3.77842        1.69294       -1.12614
H         -1.75183        2.00535       -0.58530
H         -1.26248        1.71846        1.05822
H         -0.82955       -0.54139        1.72573
H          1.35975       -1.12644        2.21470
H          3.63501       -1.69905        1.49837
H          4.11018       -2.13332       -0.88999
H          2.28470       -1.98164       -2.54586
H          0.00798       -1.38777       -1.82804
H         -1.70044       -2.87766        0.00317
H         -2.50642       -2.29879        1.44473
H         -0.87105       -2.92843        1.55164
H          2.87813        3.41751        0.21655
H          2.11378        1.58267        2.07218
H          2.29218        2.86344       -1.35320
H          0.37378        1.67950        2.16250
H          3.17929        1.75951       -0.30891
H          1.32389        3.15418        2.14299
