38
../min.omega.180.chi1.180.phi1.90.log	Energy: -505589.8487937
N         -0.39844        1.28647       -0.03536
C         -1.04509        3.60253       -0.76845
C         -1.34125        2.28791       -0.07063
C          1.04577        1.55450       -0.22211
C          1.55678        2.61274        0.75622
C          1.87719        0.27653       -0.13825
C          1.81095       -0.62239       -1.20952
C          2.56066       -1.79018       -1.21254
C          3.40179       -2.08433       -0.14081
C          3.47871       -1.20072        0.92677
C          2.72325       -0.02798        0.92746
C         -0.84660        0.10622        0.66855
O         -2.45402        2.12912        0.41144
C         -1.54246       -0.88471       -0.29135
C         -2.93811       -2.85045       -0.56885
C         -2.39167       -2.08359        1.71052
N         -2.15182       -1.96655        0.28124
O         -1.50899       -0.71925       -1.49993
H         -0.98574        4.38951       -0.02627
H         -1.89901        3.81412       -1.39796
H         -0.15057        3.61025       -1.37231
H         -0.01192       -0.40079        1.12552
H         -1.53329        0.39383        1.44687
H          1.17312        1.92929       -1.22914
H          1.14681       -0.41399       -2.02776
H          2.49031       -2.46607       -2.04561
H          3.98665       -2.98657       -0.14154
H          4.12515       -1.41386        1.75932
H          2.81016        0.63400        1.76733
H          1.37432        2.31719        1.78369
H          1.07200        3.56587        0.60511
H          2.62229        2.76738        0.62726
H         -2.78974       -3.87753       -0.25489
H         -3.26620       -1.52149        2.02854
H         -2.61770       -2.73702       -1.58963
H         -1.53752       -1.75457        2.28374
H         -3.99776       -2.61688       -0.50274
H         -2.55503       -3.12737        1.94517
