38
../min.omega.180.chi1.90.phi1.300.log	Energy: -505591.3653002
N         -0.21091        0.75260       -0.19106
C          0.42519        1.87483        1.96285
C         -0.60725        1.33044        0.99301
C          1.08747        0.99538       -0.86020
C          1.50194        2.46688       -0.89217
C          2.17430        0.02008       -0.41400
C          3.52891        0.31959       -0.60207
C          4.51695       -0.59247       -0.25898
C          4.17154       -1.82911        0.28330
C          2.83114       -2.13512        0.47332
C          1.83691       -1.21946        0.12819
C         -1.30518        0.28148       -1.00954
O         -1.79548        1.39300        1.27593
C         -2.14643       -0.78706       -0.27600
C         -4.26661       -1.77978        0.28304
C         -4.22857        0.43437       -0.82115
N         -3.50459       -0.76516       -0.43254
O         -1.57009       -1.68303        0.31915
H          1.40940        1.45211        1.82930
H          0.06673        1.65183        2.95825
H          0.47506        2.95278        1.86202
H         -1.90906        1.10611       -1.35820
H         -0.89726       -0.22794       -1.87229
H          0.88294        0.74725       -1.89400
H          3.82627        1.26460       -1.01696
H          5.55115       -0.33887       -0.41040
H          4.93606       -2.53576        0.55244
H          2.54774       -3.08415        0.89204
H          0.80642       -1.47396        0.28679
H          1.97530        2.80131        0.02031
H          0.63438        3.08946       -1.08225
H          2.20128        2.63542       -1.70237
H         -4.53210       -1.44441        1.28189
H         -5.28618        0.21548       -0.78044
H         -3.67857       -2.67760        0.36471
H         -4.00257        0.72554       -1.83991
H         -5.17391       -1.99454       -0.26818
H         -4.02187        1.26316       -0.15583
