38
../min.omega.180.chi1.195.phi1.300.log	Energy: -505593.3780212
N         -0.16928        1.00547       -0.35491
C         -0.82912        3.41706       -0.29594
C         -1.15752        1.95060       -0.50699
C          1.03752        1.27071        0.46105
C          0.75019        1.40708        1.95670
C          2.11921        0.23357        0.16815
C          2.76806        0.28550       -1.07134
C          3.76774       -0.61905       -1.40033
C          4.14450       -1.60222       -0.48705
C          3.51152       -1.66466        0.74659
C          2.50709       -0.75346        1.07347
C         -0.63753       -0.34187       -0.58881
O         -2.26981        1.62499       -0.89768
C         -1.77222       -0.77259        0.36751
C         -3.83025       -1.95732        0.78244
C         -3.03000       -1.71259       -1.54523
N         -2.74905       -1.59367       -0.12362
O         -1.71792       -0.45884        1.54554
H         -0.60727        3.64451        0.73758
H         -1.69449        3.98503       -0.60226
H          0.02406        3.71150       -0.89715
H         -0.94226       -0.41731       -1.61822
H          0.17383       -1.03614       -0.43498
H          1.42785        2.21715        0.11041
H          2.48116        1.04038       -1.78282
H          4.25274       -0.55688       -2.35806
H          4.92000       -2.30431       -0.73533
H          3.79377       -2.41813        1.45991
H          2.03481       -0.82842        2.03358
H          0.32564        0.50502        2.36694
H          0.03604        2.19704        2.14590
H          1.66714        1.65383        2.48305
H         -4.64829       -1.24383        0.72946
H         -3.86544       -2.38755       -1.66727
H         -3.45755       -1.98180        1.79182
H         -2.19305       -2.14000       -2.08305
H         -4.20325       -2.93826        0.51383
H         -3.29056       -0.75820       -1.98782
