38
../min.omega.180.chi1.330.phi1.120.log	Energy: -501275.6038362
N         -0.06235       -1.19758       -0.68983
C         -2.39050       -0.62097       -0.38781
C         -1.03172       -0.25883       -0.95830
C         -1.18066       -1.54695        0.21561
C         -1.34505       -2.86910        0.96596
C         -1.28576       -0.03401        0.03820
C         -1.18414        1.06613       -0.82170
C         -1.37010        2.38694       -0.43874
C         -1.67212        2.71615        0.88150
C         -1.75862        1.66623        1.78517
C         -1.55866        0.35645        1.34867
C          1.24330       -0.87859       -1.22165
O         -2.14820       -0.23582       -1.45708
C          2.29256       -0.77124       -0.09245
C          4.05565        0.48325        1.01842
C          2.96348        1.49220       -0.94332
N          3.06627        0.35504       -0.04313
O          2.43070       -1.68170        0.70826
H         -2.61463       -1.93122       -0.52324
H         -3.25888       -0.15661       -0.92754
H         -2.73192       -0.31618        0.82273
H          1.16985       -0.41916       -2.20546
H          1.45614       -0.19597       -0.39582
H         -1.97268       -1.60929       -0.74585
H         -0.88941        1.05096       -1.96124
H         -1.27279        3.18530       -1.18316
H         -1.81933        3.75488        1.18451
H         -1.98030        1.85367        2.83256
H         -1.64273       -0.43169        2.10796
H         -0.65852       -2.96818        1.82281
H         -1.13932       -3.69747        0.29057
H         -2.37369       -2.97076        1.34174
H          5.05794        0.59769        0.58677
H          2.60001        2.39074       -0.40649
H          4.03802       -0.41580        1.64500
H          2.29052        1.30021       -1.78696
H          3.83514        1.37140        1.64106
H          3.95321        1.71951       -1.35598
