38
../min.omega.0.chi1.285.phi1.330.log	Energy: -505585.3080963
N          0.18119       -0.81721        0.38852
C          1.38251       -1.43160       -1.74746
C          0.23662       -1.56947       -0.76216
C         -1.10843       -0.87492        1.11382
C         -0.99089       -0.56405        2.60635
C         -2.19350       -0.05552        0.41905
C         -3.18040       -0.70079       -0.33575
C         -4.18080        0.02408       -0.96784
C         -4.21645        1.41361       -0.86485
C         -3.24430        2.06711       -0.12035
C         -2.24420        1.33433        0.51908
C          1.14096        0.16953        0.82952
O         -0.64989       -2.37269       -1.01669
C          2.61465       -0.03350        0.41170
C          4.70963        0.91526       -0.36910
C          2.63695        2.22546       -0.67169
N          3.26823        1.01106       -0.18100
O          3.17858       -1.07048        0.72120
H          1.66274       -0.40244       -1.93131
H          1.04134       -1.87498       -2.67082
H          2.25082       -1.96797       -1.39175
H          0.79912        1.16575        0.58453
H          1.21094        0.11767        1.90512
H         -1.41006       -1.90617        1.04715
H         -3.14562       -1.76822       -0.43986
H         -4.92902       -0.49156       -1.54299
H         -4.99189        1.97381       -1.35609
H         -3.26320        3.13860       -0.02720
H         -1.51380        1.86334        1.10544
H         -0.76518        0.47253        2.82642
H         -0.23503       -1.18919        3.06983
H         -1.94355       -0.78945        3.07148
H          4.95281        0.82374       -1.42324
H          2.50003        2.96410        0.11271
H          5.08015        0.05173        0.15454
H          1.68215        2.02659       -1.13688
H          5.18877        1.80723        0.02033
H          3.27893        2.65616       -1.42813
