38
../min.omega.180.chi1.240.phi1.180.log	Energy: -505587.9141933
N          1.66020        0.20903        0.05133
C          3.66333       -1.25962       -0.32581
C          2.88151        0.02089       -0.55368
C          1.05336       -0.81656        0.93018
C          1.12405       -0.44968        2.41292
C         -0.29985       -1.30404        0.41765
C         -0.35558       -1.96407       -0.81577
C         -1.54674       -2.48817       -1.29768
C         -2.71658       -2.36224       -0.55050
C         -2.67710       -1.70760        0.67273
C         -1.47767       -1.18242        1.15399
C          1.06808        1.48446       -0.28332
O          3.35064        0.88314       -1.28326
C         -0.30841        1.83047        0.32753
C         -2.60727        2.52167        0.04255
C         -1.49021        1.44516       -1.85675
N         -1.36733        2.00370       -0.51997
O         -0.39913        2.09068        1.51631
H          3.86454       -1.43274        0.72501
H          4.59943       -1.14784       -0.85128
H          3.14294       -2.12619       -0.71800
H          1.70609        2.27705        0.08739
H          1.05405        1.59425       -1.35329
H          1.69544       -1.67397        0.82111
H          0.54090       -2.07150       -1.40151
H         -1.56304       -2.99716       -2.24487
H         -3.64033       -2.77224       -0.91756
H         -3.57295       -1.60500        1.25872
H         -1.47209       -0.67211        2.09772
H          0.53990        0.42066        2.66080
H          2.15787       -0.24414        2.67048
H          0.79183       -1.29042        3.01417
H         -3.13236        3.07651       -0.72611
H         -0.63485        0.84892       -2.12138
H         -2.38806        3.17474        0.87018
H         -1.60933        2.23659       -2.59000
H         -3.24731        1.71545        0.38934
H         -2.36049        0.80002       -1.89905
