38
../min.omega.0.chi1.195.phi1.270.log	Energy: -505594.4450420
N          0.99858       -1.05973       -0.34008
C          3.37224       -1.03887       -1.10469
C          2.19795       -1.72735       -0.43392
C         -0.04768       -1.70247        0.48739
C          0.32238       -1.72974        1.97077
C         -1.42300       -1.09032        0.23188
C         -2.19107       -1.57204       -0.83492
C         -3.44656       -1.04964       -1.11175
C         -3.96666       -0.02772       -0.31939
C         -3.21944        0.45650        0.74532
C         -1.95779       -0.07170        1.01972
C          0.83366        0.27720       -0.86423
O          2.32285       -2.86681       -0.00745
C          1.15712        1.39784        0.14923
C          0.97235        3.73740        0.77900
C         -0.09854        2.96850       -1.31145
N          0.77362        2.66619       -0.18807
O          1.77356        1.14887        1.17254
H          3.18724       -0.88242       -2.16264
H          4.22617       -1.69001       -0.99615
H          3.58430       -0.08326       -0.64185
H          1.47640        0.41907       -1.72166
H         -0.17538        0.38667       -1.22337
H         -0.08960       -2.72683        0.14828
H         -1.79828       -2.36392       -1.44876
H         -4.01996       -1.43969       -1.93369
H         -4.94148        0.37590       -0.52679
H         -3.61441        1.23803        1.36987
H         -1.40118        0.31536        1.85240
H          0.49502       -0.73827        2.36431
H          1.22480       -2.30621        2.10870
H         -0.47485       -2.20336        2.53565
H          1.35336        4.61695        0.27275
H         -1.14244        2.76577       -1.08820
H          1.68132        3.41663        1.52201
H          0.18404        2.41481       -2.19537
H          0.03739        3.99763        1.26842
H          0.00111        4.01985       -1.54533
