38
../min.omega.180.chi1.270.phi1.180.log	Energy: -505584.8330760
N         -1.49603       -0.80843        0.14480
C         -3.79525        0.17975        0.05102
C         -2.63762       -0.56784       -0.58451
C         -1.08960        0.18965        1.16026
C         -0.67347       -0.42283        2.49810
C         -0.16443        1.26673        0.59860
C         -0.53296        1.97545       -0.55117
C          0.26040        2.99708       -1.05383
C          1.45288        3.33696       -0.41735
C          1.83488        2.64095        0.72110
C          1.03264        1.61581        1.22264
C         -0.52420       -1.52998       -0.64527
O         -2.76853       -1.00763       -1.71822
C          0.81940       -1.87898        0.03336
C          3.23990       -2.03427       -0.08654
C          2.08039       -0.65349       -1.76176
N          1.97895       -1.50197       -0.58540
O          0.82154       -2.57669        1.03453
H         -3.97166       -0.13501        1.07220
H         -4.66806       -0.03328       -0.54793
H         -3.63358        1.25192        0.04695
H         -0.94577       -2.49446       -0.89172
H         -0.36487       -1.02488       -1.58329
H         -2.00219        0.71313        1.39397
H         -1.44112        1.73049       -1.07127
H         -0.05011        3.52597       -1.93708
H          2.06818        4.12916       -0.80414
H          2.75232        2.88967        1.22391
H          1.35301        1.09552        2.10446
H          0.28928       -0.90268        2.48904
H         -1.40565       -1.16954        2.77876
H         -0.67426        0.35602        3.25466
H          3.78032       -2.51782       -0.89432
H          1.34959        0.13759       -1.75165
H          3.04440       -2.75032        0.69172
H          1.98322       -1.22259       -2.68230
H          3.85762       -1.23373        0.30928
H          3.05699       -0.18773       -1.75539
