38
../min.omega.180.chi1.225.phi1.270.log	Energy: -502283.7528295
N         -0.19950        1.18722       -0.17697
C         -0.03252        3.66725       -0.09414
C         -0.68531        2.39884       -0.61171
C          0.90532        1.07948        0.80295
C          0.41378        0.91592        2.24161
C          1.92302        0.03091        0.35989
C          2.62238        0.24002       -0.83477
C          3.57487       -0.66621       -1.27897
C          3.85196       -1.80980       -0.53194
C          3.16762       -2.02983        0.65536
C          2.21082       -1.11637        1.09826
C         -0.85085        0.00554       -0.69532
O         -1.60489        2.47941       -1.41403
C         -2.03728       -0.46881        0.17356
C         -3.79987       -2.10440        0.55832
C         -2.33929       -2.39767       -1.39621
N         -2.71473       -1.57565       -0.25719
O         -2.35182        0.12612        1.19154
H         -0.03209        3.71206        0.98894
H         -0.60087        4.49644       -0.48590
H          0.99331        3.75005       -0.43915
H         -1.20736        0.22245       -1.68596
H         -0.12804       -0.79552       -0.76281
H          1.43094        2.02533        0.75773
H          2.41275        1.11719       -1.42187
H          4.10031       -0.48194       -2.19892
H          4.59059       -2.51340       -0.87151
H          3.37348       -2.90736        1.24184
H          1.69976       -1.31030        2.02176
H         -0.11805       -0.01066        2.39676
H         -0.27438        1.71418        2.48639
H          1.25689        0.96088        2.92448
H         -4.67546       -2.26816       -0.06094
H         -1.83209       -3.30557       -1.07847
H         -4.03672       -1.39840        1.33489
H         -1.69853       -1.86753       -2.08041
H         -3.51502       -3.05200        1.00859
H         -3.23397       -2.68229       -1.93782
