38
../min.omega.0.chi1.315.phi1.180.log	Energy: -505576.8104459
N          0.28867        1.14898       -0.28756
C          0.12387        3.24470        1.06729
C         -0.49667        2.17231        0.19104
C         -0.42935        0.10951       -1.05986
C          0.37448       -1.12712       -1.46327
C         -1.73602       -0.35276       -0.41922
C         -2.89013       -0.45008       -1.20574
C         -4.06288       -0.98037       -0.68683
C         -4.11222       -1.42501        0.63321
C         -2.97452       -1.33496        1.42310
C         -1.79401       -0.81023        0.89669
C          1.68003        1.19128        0.10183
O         -1.66958        2.28798       -0.13567
C          2.68209        0.10936       -0.35958
C          4.06458       -1.82321        0.10859
C          2.25713       -1.28644        1.68204
N          3.02133       -0.88928        0.51059
O          3.25688        0.25809       -1.42572
H          0.51214        2.84613        1.99812
H         -0.65851        3.95393        1.28834
H          0.93361        3.75597        0.55989
H          2.13460        2.07946       -0.31484
H          1.76431        1.27149        1.17586
H         -0.71515        0.59465       -1.98618
H         -2.87222       -0.09135       -2.21961
H         -4.94003       -1.03843       -1.30653
H         -5.02340       -1.82974        1.03574
H         -2.99849       -1.67244        2.44435
H         -0.92400       -0.74847        1.52608
H          0.69363       -1.71197       -0.60991
H          1.22650       -0.88521       -2.07951
H         -0.28875       -1.75516       -2.04541
H          4.60558       -2.14464        0.99079
H          1.86681       -2.29122        1.55275
H          4.74169       -1.33809       -0.57313
H          1.42283       -0.62761        1.85252
H          3.64106       -2.69807       -0.37727
H          2.89121       -1.27774        2.56214
