38
../min.omega.0.chi1.240.phi1.240.log	Energy: -505592.0332200
N         -0.42524        1.35141        0.01303
C         -1.36648        3.09335       -1.50686
C         -0.57133        2.68784       -0.27958
C          0.54618        0.99192        1.07114
C         -0.11778        0.50387        2.35920
C          1.64010        0.08127        0.51837
C          2.53906        0.61187       -0.41458
C          3.55913       -0.16171       -0.95016
C          3.70702       -1.49127       -0.55897
C          2.82807       -2.02912        0.37086
C          1.80265       -1.24854        0.90496
C         -1.00268        0.31068       -0.80719
O         -0.04181        3.55598        0.39998
C         -2.00370       -0.58761       -0.04652
C         -3.05410       -2.75714        0.24433
C         -1.22268       -2.51951       -1.41127
N         -2.02898       -1.91792       -0.36149
O         -2.77212       -0.08506        0.75729
H         -0.92025        2.69755       -2.41293
H         -1.35270        4.17149       -1.54873
H         -2.39461        2.75414       -1.45196
H         -1.57157        0.74174       -1.61485
H         -0.21274       -0.27245       -1.25476
H          1.01941        1.92719        1.31390
H          2.43961        1.64132       -0.71224
H          4.24076        0.26993       -1.66122
H          4.49953       -2.09192       -0.96797
H          2.93769       -3.05102        0.68814
H          1.14122       -1.68651        1.62852
H         -0.62161       -0.44702        2.26102
H         -0.85434        1.23014        2.67534
H          0.63559        0.41149        3.13545
H         -3.80912       -3.03410       -0.48598
H         -0.16346       -2.45279       -1.19941
H         -3.52329       -2.21673        1.04742
H         -1.41716       -2.08026       -2.38470
H         -2.60231       -3.66228        0.63475
H         -1.48038       -3.56723       -1.47105
