38
../min.omega.0.chi1.105.phi1.150.log	Energy: -505586.8405742
N          1.11444       -1.01263        0.07088
C          2.38779       -2.29431       -1.63678
C          2.34239       -1.42033       -0.39702
C          0.93672        0.03645        1.10061
C          2.10879        0.28758        2.04998
C          0.44755        1.33354        0.46049
C         -0.72513        1.94715        0.91695
C         -1.16852        3.13931        0.36200
C         -0.44821        3.74217       -0.66774
C          0.71707        3.14511       -1.12824
C          1.16322        1.94901       -0.56581
C         -0.07871       -1.42893       -0.63083
O          3.40217       -1.06427        0.09890
C         -1.33175       -1.58125        0.26039
C         -3.74322       -1.43338        0.50109
C         -2.68854       -0.51090       -1.54300
N         -2.53276       -1.21145       -0.27848
O         -1.23773       -2.10238        1.35981
H          1.97898       -3.28229       -1.45317
H          3.42745       -2.39616       -1.90692
H          1.84354       -1.85125       -2.46315
H         -0.27961       -0.76342       -1.45881
H          0.05689       -2.41993       -1.03713
H          0.14227       -0.32936        1.72834
H         -1.28777        1.48795        1.71150
H         -2.07011        3.59781        0.72788
H         -0.79167        4.66543       -1.09892
H          1.28373        3.60628       -1.91753
H          2.07514        1.50208       -0.92061
H          2.94314        0.77972        1.57888
H          2.45863       -0.63680        2.48809
H          1.73133        0.92510        2.84429
H         -4.17939       -0.48672        0.80571
H         -3.74269       -0.32674       -1.69278
H         -3.50042       -2.00878        1.37675
H         -2.34005       -1.10088       -2.38319
H         -4.47135       -1.97403       -0.09381
H         -2.18202        0.44638       -1.54441
