38
../min.omega.180.chi1.195.phi1.0.log	Energy: -505584.0300164
N         -0.22819        0.80901       -0.37027
C         -1.01621        3.15077       -0.69689
C         -1.27913        1.65760       -0.63188
C          0.99677        1.31446        0.29040
C          0.74337        1.68560        1.75196
C          2.14989        0.32330        0.15114
C          2.69460        0.13154       -1.12423
C          3.75864       -0.73464       -1.33246
C          4.31154       -1.42824       -0.25735
C          3.78799       -1.24197        1.01451
C          2.71668       -0.37210        1.21859
C         -0.44627       -0.61825       -0.30191
O         -2.40656        1.24461       -0.86464
C         -1.86251       -1.19532       -0.52284
C         -4.03006       -1.86791        0.25512
C         -2.67515       -0.41811        1.68737
N         -2.71463       -1.31064        0.54025
O         -2.09623       -1.73102       -1.59408
H         -0.71006        3.56921        0.25150
H         -1.93953        3.61744       -1.00413
H         -0.24637        3.37564       -1.42707
H          0.13825       -1.10260       -1.06766
H         -0.09031       -0.98818        0.65198
H          1.29497        2.20884       -0.23787
H          2.27103        0.65982       -1.96078
H          4.15493       -0.86696       -2.32296
H          5.13673       -2.09964       -0.41158
H          4.20724       -1.76876        1.85279
H          2.34201       -0.25165        2.21646
H          0.45011        0.82408        2.33924
H         -0.04572        2.41884        1.84581
H          1.63905        2.10470        2.19743
H         -4.46753       -2.21601        1.18340
H         -3.30874        0.44966        1.53679
H         -3.93309       -2.69524       -0.42736
H         -1.67009       -0.07833        1.87779
H         -4.68548       -1.12302       -0.18773
H         -3.01625       -0.95553        2.56463
