38
../min.omega.180.chi1.165.phi1.360.log	Energy: -505578.7863308
N         -0.25176        0.90218       -0.09744
C         -1.14818        3.22119        0.41542
C         -1.31736        1.76310        0.03039
C          1.11979        1.28250       -0.50572
C          1.70895        2.57355        0.06366
C          2.11142        0.16587       -0.18739
C          2.89356       -0.39276       -1.20535
C          3.85308       -1.35322       -0.91788
C          4.04879       -1.77778        0.39516
C          3.27928       -1.23148        1.41292
C          2.31918       -0.26170        1.12344
C         -0.53598       -0.46539       -0.46929
O         -2.46599        1.35357       -0.06329
C         -1.98618       -0.93954       -0.71362
C         -4.02488       -1.95108        0.05206
C         -2.45696       -1.06760        1.71052
N         -2.67394       -1.48496        0.33474
O         -2.37753       -1.02929       -1.86598
H         -0.82611        3.81929       -0.42796
H         -0.45536        3.36254        1.23048
H         -2.12920        3.55873        0.71210
H         -0.07041       -0.66767       -1.42378
H         -0.08151       -1.13149        0.24860
H          1.10685        1.38533       -1.58848
H          2.74612       -0.07794       -2.22366
H          4.44254       -1.77331       -1.71287
H          4.78922       -2.52497        0.61665
H          3.42074       -1.55341        2.42908
H          1.72566        0.15067        1.92058
H          1.67627        2.59210        1.14622
H          1.24224        3.46649       -0.32016
H          2.75057        2.60758       -0.23077
H         -4.32088       -2.64799        0.82741
H         -3.12360       -0.25661        1.98483
H         -4.04365       -2.44860       -0.90300
H         -1.44151       -0.73467        1.86124
H         -4.73084       -1.12507        0.03114
H         -2.63599       -1.90974        2.36940
