38
../min.omega.0.chi1.135.phi1.60.log	Energy: -505588.6810908
N          0.14022        0.93008       -0.19234
C          2.12591        2.10244       -1.17263
C          0.73898        2.11398       -0.55685
C         -0.92395        0.83755        0.83308
C         -1.50273        2.14068        1.38534
C         -2.05022       -0.06426        0.33331
C         -2.55507       -1.08413        1.14881
C         -3.60965       -1.87967        0.72363
C         -4.18039       -1.67210       -0.53088
C         -3.68799       -0.66455       -1.34869
C         -2.62873        0.13537       -0.91958
C          0.81496       -0.33322       -0.38753
O          0.18734        3.19691       -0.41972
C          2.16017       -0.46449        0.36131
C          4.28015       -1.63519        0.62673
C          2.66768       -2.45554       -1.05463
N          2.96543       -1.51266        0.01137
O          2.45054        0.32050        1.24937
H          2.84978        2.19532       -0.37490
H          2.19285        2.97046       -1.81205
H          2.36321        1.21838       -1.75008
H          0.16429       -1.12518       -0.04676
H          0.96779       -0.50974       -1.44438
H         -0.46120        0.33612        1.67812
H         -2.12026       -1.25171        2.11957
H         -3.98415       -2.65907        1.36320
H         -4.99636       -2.28925       -0.86187
H         -4.12367       -0.49564       -2.31743
H         -2.25208        0.91401       -1.55817
H         -2.02592        2.71219        0.63484
H         -0.73808        2.76620        1.82014
H         -2.20663        1.86054        2.16337
H          4.38714       -2.61425        1.08149
H          3.02513       -2.10828       -2.02078
H          4.38889       -0.87726        1.38242
H          1.60978       -2.65960       -1.12569
H          5.06009       -1.51395       -0.11946
H          3.16206       -3.39168       -0.83040
