38
../min.omega.0.chi1.0.phi1.330.log	Energy: -505576.4629311
N         -0.23583        0.27394        0.14437
C         -1.33580       -1.63374        1.36337
C         -0.11239       -0.84262        0.93875
C          0.91637        0.93861       -0.50613
C          0.90582        2.43154       -0.17570
C          2.31500        0.36483       -0.29139
C          2.83742       -0.49173       -1.26782
C          4.13879       -0.96650       -1.18517
C          4.95517       -0.58266       -0.12270
C          4.45299        0.27344        0.84752
C          3.14363        0.74721        0.76286
C         -1.48056        0.80786       -0.36051
O          0.97350       -1.23699        1.34021
C         -2.65446       -0.15851       -0.63554
C         -5.03666       -0.62427       -0.54957
C         -4.13357        1.17434        0.88437
N         -3.88015        0.14555       -0.11133
O         -2.48167       -1.08932       -1.40554
H         -2.17868       -1.02082        1.65491
H         -1.02632       -2.22704        2.21036
H         -1.64629       -2.28881        0.56207
H         -1.80176        1.63993        0.24894
H         -1.29504        1.20777       -1.34878
H          0.73075        0.84123       -1.57055
H          2.21669       -0.79310       -2.09375
H          4.51648       -1.62701       -1.94525
H          5.96525       -0.94572       -0.05672
H          5.07191        0.57448        1.67401
H          2.77494        1.39289        1.53744
H          0.97179        2.59475        0.89385
H          0.00660        2.92353       -0.52744
H          1.74923        2.92037       -0.64836
H         -5.41130       -1.24503        0.25848
H         -4.23805        2.16021        0.44105
H         -4.75315       -1.25299       -1.37505
H         -3.35946        1.20876        1.63784
H         -5.82677        0.04957       -0.86339
H         -5.06018        0.93420        1.38761
