38
../min.omega.0.chi1.240.phi1.30.log	Energy: -505588.6282489
N         -0.17734        1.08093        0.13513
C         -2.14040        1.83713       -1.25183
C         -0.72392        1.99884       -0.73188
C          1.20457        1.33415        0.60279
C          1.21216        1.69860        2.08779
C          2.13999        0.19288        0.21036
C          2.18744       -0.20300       -1.13168
C          3.04623       -1.20963       -1.55000
C          3.88215       -1.84498       -0.63338
C          3.84566       -1.46215        0.70024
C          2.97960       -0.45153        1.11813
C         -0.78946       -0.11242        0.67414
O         -0.07600        2.96310       -1.11429
C         -1.84844       -0.82106       -0.19991
C         -3.94777       -2.03257       -0.36436
C         -3.43586       -0.82711        1.73410
N         -3.02939       -1.18561        0.38492
O         -1.56650       -1.11539       -1.35015
H         -2.14480        1.14959       -2.08530
H         -2.45527        2.81352       -1.58907
H         -2.83778        1.47685       -0.50634
H         -0.01521       -0.86128        0.77710
H         -1.17078        0.08422        1.66612
H          1.52151        2.20613        0.05883
H          1.54364        0.27583       -1.84614
H          3.06346       -1.49782       -2.58569
H          4.54844       -2.62463       -0.95657
H          4.48487       -1.94400        1.41861
H          2.97516       -0.17531        2.15567
H          0.91821        0.87345        2.72878
H          0.52594        2.52085        2.25585
H          2.19990        2.02273        2.39583
H         -4.15701       -2.93896        0.19451
H         -3.30064        0.22784        1.93193
H         -3.50125       -2.29064       -1.30813
H         -2.90874       -1.39864        2.49176
H         -4.88324       -1.51162       -0.54179
H         -4.49103       -1.04008        1.83220
