38
../min.omega.180.chi1.195.phi1.330.log	Energy: -505589.3134196
N         -0.15494        0.84047       -0.32913
C         -0.81569        3.21507       -0.68523
C         -1.17175        1.75181       -0.49821
C          1.09176        1.27118        0.34371
C          0.85047        1.56521        1.82474
C          2.20589        0.25478        0.10466
C          2.63213        0.03884       -1.21130
C          3.65534       -0.85323       -1.49945
C          4.28200       -1.55149       -0.46872
C          3.87253       -1.34439        0.84119
C          2.84331       -0.44716        1.12704
C         -0.53741       -0.54245       -0.15433
O         -2.32818        1.39128       -0.66716
C         -1.90616       -0.77519        0.52386
C         -4.07284       -1.77954        0.64245
C         -3.08067       -1.44264       -1.55726
N         -2.86208       -1.50966       -0.12137
O         -2.01188       -0.45744        1.69732
H         -0.38287        3.66565        0.19817
H         -1.72817        3.73527       -0.93326
H         -0.10787        3.32213       -1.49998
H         -0.46251       -1.06050       -1.09888
H          0.15846       -1.02012        0.51460
H          1.40565        2.18482       -0.14152
H          2.15146        0.57198       -2.01296
H          3.96485       -1.00181       -2.51847
H          5.07593       -2.24292       -0.68637
H          4.34804       -1.87651        1.64545
H          2.54907       -0.31083        2.14967
H          0.47027        0.69582        2.34538
H          0.10992        2.34604        1.94303
H          1.76374        1.89918        2.30543
H         -4.72852       -0.91349        0.66533
H         -3.46793       -2.39574       -1.89862
H         -3.81560       -2.04428        1.65456
H         -2.16868       -1.23859       -2.09151
H         -4.59687       -2.60563        0.17698
H         -3.79217       -0.66168       -1.80375
