38
../min.omega.0.chi1.180.phi1.150.log	Energy: -505581.0592184
N          1.68767       -0.02346       -0.29022
C          3.84586        1.20771        0.06533
C          3.06340       -0.04281       -0.29081
C          1.09245       -1.34052        0.03160
C          1.63579       -1.89649        1.34834
C         -0.43335       -1.39576        0.05087
C         -1.11133       -1.84872       -1.08721
C         -2.48967       -2.00989       -1.08727
C         -3.22764       -1.71968        0.05895
C         -2.57147       -1.27137        1.19688
C         -1.18497       -1.11762        1.19191
C          1.03548        1.21848        0.05841
O          3.68208       -1.06571       -0.54919
C         -0.33847        1.43803       -0.61362
C         -2.57035        2.38721       -0.54058
C         -1.11236        2.64395        1.43631
N         -1.26008        2.18717        0.06387
O         -0.50933        1.06909       -1.76421
H          3.74185        1.98101       -0.68836
H          4.88463        0.92086        0.12180
H          3.53233        1.61969        1.01810
H          0.95410        1.32504        1.13446
H          1.63018        2.04356       -0.30034
H          1.41958       -1.99559       -0.75925
H         -0.55255       -2.05816       -1.98060
H         -2.98622       -2.35872       -1.97471
H         -4.29524       -1.84896        0.06365
H         -3.12723       -1.05611        2.09243
H         -0.70195       -0.79548        2.09596
H          1.46650       -1.21167        2.17471
H          2.69443       -2.09026        1.28383
H          1.13681       -2.82882        1.58660
H         -3.33193        1.85829        0.02379
H         -1.87765        3.38389        1.62527
H         -2.55372        2.01292       -1.54850
H         -0.15739        3.12412        1.60317
H         -2.81403        3.44432       -0.55229
H         -1.23783        1.84176        2.15697
