38
../min.omega.0.chi1.210.phi1.180.log	Energy: -505586.2878262
N          1.61168       -0.12576       -0.17229
C          3.96820        0.68349       -0.42841
C          2.91128       -0.40065       -0.53072
C          0.88226       -1.30033        0.35764
C          1.25213       -1.54156        1.82158
C         -0.62144       -1.27802        0.09326
C         -1.05193       -1.44841       -1.22799
C         -2.40045       -1.53904       -1.54278
C         -3.35561       -1.47223       -0.52994
C         -2.94392       -1.31280        0.78593
C         -1.58734       -1.21840        1.09712
C          1.35714        1.22085        0.28722
O          3.25618       -1.52142       -0.87823
C         -0.08030        1.60195        0.70687
C         -2.23853        2.58325        0.14337
C         -0.68602        2.01413       -1.68380
N         -0.92979        2.08011       -0.25193
O         -0.36249        1.58799        1.89402
H          3.75542        1.54225       -1.05447
H          4.90214        0.24333       -0.74150
H          4.06085        1.03259        0.59377
H          1.91666        1.44486        1.18760
H          1.67786        1.91581       -0.47353
H          1.27156       -2.12189       -0.21549
H         -0.31747       -1.52335       -2.01133
H         -2.70484       -1.67802       -2.56505
H         -4.40196       -1.55236       -0.76533
H         -3.67122       -1.26347        1.57645
H         -1.29968       -1.08307        2.12051
H          0.95287       -0.71931        2.45988
H          2.32540       -1.67233        1.90646
H          0.78268       -2.44831        2.18695
H         -2.42461        3.52864       -0.35602
H         -1.55348        1.59044       -2.17458
H         -2.25684        2.73107        1.20926
H          0.15472        1.37969       -1.91058
H         -3.01709        1.88133       -0.13462
H         -0.50851        3.00570       -2.09138
