38
../min.omega.0.chi1.255.phi1.60.log	Energy: -505593.2474051
N         -0.19408        1.39213        0.39729
C         -1.87175        2.37632       -1.18447
C         -0.48881        2.33429       -0.56110
C          1.20482        1.28994        0.87176
C          1.29194        1.45203        2.38974
C          1.90869        0.06277        0.29720
C          2.16000        0.01859       -1.07937
C          2.80801       -1.06793       -1.64977
C          3.21993       -2.13675       -0.85567
C          2.97838       -2.10515        0.51074
C          2.32793       -1.01107        1.08166
C         -1.13964        0.40586        0.86897
O          0.35315        3.13140       -0.95041
C         -1.68481       -0.54743       -0.21804
C         -3.26087       -2.29944       -0.81916
C         -3.26066       -1.44766        1.49527
N         -2.63927       -1.44158        0.18078
O         -1.26059       -0.51052       -1.36165
H         -1.85254        1.77821       -2.08370
H         -2.07171        3.40598       -1.44528
H         -2.66460        2.00945       -0.54559
H         -0.64077       -0.20679        1.60449
H         -1.97213        0.88178        1.37548
H          1.68656        2.15211        0.44477
H          1.84379        0.83828       -1.69777
H          2.99153       -1.08190       -2.70912
H          3.72339       -2.97779       -1.29805
H          3.29501       -2.92187        1.13506
H          2.16492       -1.00587        2.14386
H          0.80710        0.65718        2.94629
H          0.82837        2.38926        2.67570
H          2.33083        1.47965        2.69951
H         -3.28028       -3.32229       -0.45995
H         -4.11799       -0.78055        1.54646
H         -2.69103       -2.25115       -1.73020
H         -2.56146       -1.17587        2.27149
H         -4.28149       -1.98320       -1.01779
H         -3.60352       -2.45183        1.70770
