38
../min.omega.0.chi1.120.phi1.120.log	Energy: -505589.1029410
N          0.13136        1.32669       -0.02715
C          1.08483        3.12472       -1.46298
C          0.12609        2.65537       -0.38436
C         -0.75211        0.72530        0.99769
C         -1.60504        1.67173        1.84322
C         -1.61798       -0.36727        0.37474
C         -1.59539       -1.66833        0.89124
C         -2.40594       -2.66052        0.35797
C         -3.25431       -2.37257       -0.70974
C         -3.28462       -1.08718       -1.23250
C         -2.47238       -0.09021       -0.69181
C          1.02795        0.38560       -0.65943
O         -0.65016        3.47357        0.08873
C          2.00059       -0.30899        0.31991
C          3.62977       -2.03989        0.74958
C          2.71765       -1.83481       -1.51905
N          2.62899       -1.43988       -0.12255
O          2.19811        0.14304        1.43606
H          2.12161        2.95105       -1.19740
H          0.92493        4.18571       -1.57577
H          0.88593        2.63793       -2.41187
H          0.44211       -0.37073       -1.16448
H          1.62762        0.86830       -1.41196
H         -0.08276        0.24195        1.69149
H         -0.94112       -1.90009        1.71395
H         -2.37649       -3.65409        0.76879
H         -3.88149       -3.14151       -1.12411
H         -3.93871       -0.85430       -2.05396
H         -2.50741        0.90489       -1.09946
H         -2.37248        2.17313        1.27555
H         -0.99885        2.41914        2.33293
H         -2.08038        1.05787        2.60266
H          3.64747       -3.10953        0.57909
H          3.59931       -1.41474       -1.99849
H          3.37683       -1.84347        1.77696
H          1.84605       -1.53653       -2.07811
H          4.62062       -1.63957        0.55047
H          2.78651       -2.91377       -1.57361
