38
../min.omega.0.chi1.285.phi1.90.log	Energy: -505590.8595941
N         -0.19010        1.37465        0.41199
C         -0.83255        2.91370       -1.44106
C          0.20416        2.32337       -0.50317
C          0.87644        0.78524        1.25316
C          0.35036        0.24193        2.58213
C          1.76520       -0.22308        0.52866
C          3.04088        0.16651        0.10331
C          3.89619       -0.73818       -0.50969
C          3.49390       -2.05694       -0.71383
C          2.23122       -2.45712       -0.29920
C          1.37582       -1.54564        0.32010
C         -1.56286        0.93049        0.49896
O          1.36004        2.72084       -0.54573
C         -1.88960       -0.28104       -0.40271
C         -3.27265       -2.17641       -0.95636
C         -4.00297       -0.69925        0.85497
N         -2.93125       -1.09170       -0.04584
O         -1.22450       -0.48797       -1.40469
H         -1.35103        2.14114       -1.99338
H         -0.30711        3.55928       -2.12807
H         -1.55968        3.50727       -0.89536
H         -1.78356        0.70251        1.52695
H         -2.23344        1.73164        0.22027
H          1.51046        1.62226        1.49863
H          3.34883        1.18583        0.23709
H          4.87099       -0.41651       -0.83066
H          4.15601       -2.75792       -1.19031
H          1.90704       -3.47101       -0.45321
H          0.40434       -1.88267        0.63112
H         -0.27971       -0.63368        2.47581
H         -0.20425        1.00325        3.12196
H          1.19899       -0.04636        3.19078
H         -3.73640       -2.97453       -0.38947
H         -4.84927       -0.29079        0.30725
H         -2.37948       -2.54396       -1.43162
H         -3.67870        0.03495        1.57404
H         -3.96637       -1.84643       -1.72534
H         -4.34366       -1.56940        1.40237
