38
../min.omega.0.chi1.270.phi1.180.log	Energy: -505585.0708249
N         -0.93204        1.20359        0.20128
C         -1.90589        3.04197       -1.16881
C         -0.89263        2.53012       -0.16173
C          0.07053        0.76119        1.19709
C         -0.50601       -0.10606        2.31673
C          1.37985        0.26664        0.58669
C          2.13041        1.10925       -0.24199
C          3.33530        0.68877       -0.78718
C          3.83263       -0.58316       -0.50880
C          3.10870       -1.42289        0.32618
C          1.89407       -0.99906        0.86572
C         -1.95095        0.38226       -0.41235
O         -0.07500        3.31240        0.30234
C         -2.03449       -1.11401       -0.03583
C         -1.35943       -3.41319       -0.38776
C         -0.32747       -1.65793       -1.76822
N         -1.16726       -1.98936       -0.62850
O         -2.90986       -1.47553        0.73370
H         -1.76905        2.57584       -2.13862
H         -1.74596        4.10469       -1.26490
H         -2.92574        2.86004       -0.85220
H         -2.93049        0.74001       -0.13007
H         -1.88527        0.44158       -1.49105
H          0.32927        1.68931        1.67993
H          1.78109        2.10298       -0.44126
H          3.89276        1.35783       -1.41845
H          4.76968       -0.90497       -0.92685
H          3.48140       -2.40385        0.56287
H          1.35810       -1.67226        1.50657
H         -0.69987       -1.13211        2.04921
H         -1.43370        0.32486        2.67191
H          0.20069       -0.10905        3.13959
H         -1.93615       -3.87078       -1.18753
H         -0.00948       -0.62975       -1.73908
H         -1.88264       -3.55455        0.54214
H         -0.84135       -1.85252       -2.70731
H         -0.39180       -3.89802       -0.33836
H          0.56474       -2.26725       -1.73272
