38
../min.omega.0.chi1.165.phi1.60.log	Energy: -505586.6519749
N         -0.21512        1.15337        0.27228
C         -2.52334        2.02592        0.75285
C         -1.07073        2.22706        0.36252
C          0.99241        1.23276       -0.58098
C          1.77066        2.54732       -0.51455
C          1.97238        0.10766       -0.25647
C          2.36118       -0.79622       -1.25240
C          3.30092       -1.78345       -0.99151
C          3.86974       -1.89207        0.27629
C          3.49041       -1.00402        1.27324
C          2.55012       -0.00846        1.00726
C         -0.72168       -0.17049        0.55529
O         -0.72868        3.36892        0.08868
C         -1.87820       -0.62255       -0.36432
C         -3.74045       -2.14291       -0.76286
C         -2.37045       -2.44084        1.27161
N         -2.59303       -1.71985        0.02876
O         -2.09649       -0.03633       -1.41210
H         -3.08967        1.89112       -0.15784
H         -2.84720        2.93781        1.23322
H         -2.72272        1.19098        1.41119
H          0.07114       -0.88986        0.44715
H         -1.03516       -0.22330        1.58961
H          0.66487        1.08947       -1.60598
H          1.92399       -0.72314       -2.23278
H          3.58825       -2.46691       -1.77053
H          4.59691       -2.65767        0.47912
H          3.92420       -1.07727        2.25470
H          2.26454        0.67392        1.78797
H          1.97627        2.83315        0.51003
H          1.24848        3.35786       -0.98942
H          2.71924        2.39372       -1.01847
H         -3.62297       -3.17837       -1.06463
H         -2.93111       -2.01434        2.09966
H         -3.81324       -1.52262       -1.63883
H         -1.32383       -2.47062        1.53568
H         -4.65383       -2.05411       -0.18183
H         -2.69758       -3.46344        1.13636
