38
../min.omega.0.chi1.180.phi1.90.log	Energy: -505591.1509850
N          1.44014       -0.49985        0.18802
C          3.57628        0.70883        0.62011
C          2.81151       -0.48451        0.07793
C          0.69482       -1.59891       -0.46699
C          1.16239       -2.98278       -0.01489
C         -0.81196       -1.47443       -0.25340
C         -1.59312       -0.86584       -1.24308
C         -2.96874       -0.74880       -1.10247
C         -3.59930       -1.23972        0.03948
C         -2.83874       -1.84778        1.02854
C         -1.45677       -1.96723        0.88046
C          0.74197        0.60260        0.80968
O          3.42683       -1.37241       -0.49556
C          0.34785        1.69905       -0.20523
C         -0.97250        3.66322       -0.73244
C         -1.22408        2.60818        1.48548
N         -0.48612        2.68899        0.23530
O          0.81390        1.68562       -1.33295
H          3.22925        1.62813        0.16501
H          4.61445        0.55529        0.36866
H          3.48860        0.79737        1.69808
H         -0.13410        0.23716        1.31523
H          1.36078        1.05824        1.56868
H          0.88065       -1.51165       -1.52962
H         -1.11310       -0.47501       -2.12195
H         -3.54749       -0.28241       -1.87966
H         -4.66552       -1.15432        0.14965
H         -3.31309       -2.23689        1.91189
H         -0.89267       -2.44726        1.65843
H          1.17437       -3.05943        1.06758
H          2.15291       -3.19685       -0.37429
H          0.47862       -3.73284       -0.39815
H         -1.96088        3.39385       -1.09615
H         -1.54570        3.60480        1.75684
H         -0.29226        3.70625       -1.56513
H         -0.60257        2.24145        2.28959
H         -1.02992        4.63795       -0.26238
H         -2.10400        1.97535        1.40347
