38
../min.omega.180.chi1.210.phi1.270.log	Energy: -505594.5481619
N         -0.30999        1.26378       -0.27805
C         -0.54658        3.74512       -0.12421
C         -1.03284        2.38901       -0.60108
C          0.83204        1.29723        0.66383
C          0.41933        1.27822        2.13605
C          1.85719        0.22294        0.30818
C          2.63821        0.40068       -0.84006
C          3.59115       -0.53592       -1.21489
C          3.78665       -1.67882       -0.44145
C          3.02144       -1.86750        0.70103
C          2.06409       -0.92385        1.07391
C         -0.84913        0.01815       -0.77509
O         -2.03251        2.32134       -1.30245
C         -1.83903       -0.67009        0.19134
C         -3.23585       -2.59954        0.68183
C         -1.94094       -2.57326       -1.41575
N         -2.37632       -1.85514       -0.22882
O         -2.13206       -0.16886        1.26468
H         -0.43779        3.79407        0.95066
H         -1.27762        4.47248       -0.44242
H          0.41083        3.99036       -0.57251
H         -1.36172        0.22607       -1.69973
H         -0.03806       -0.66296       -0.98552
H          1.33049        2.23925        0.48538
H          2.49224        1.27903       -1.44475
H          4.18072       -0.37534       -2.09972
H          4.52620       -2.40560       -0.72573
H          3.16533       -2.74370        1.30765
H          1.48905       -1.09449        1.96363
H         -0.08427        0.36646        2.41204
H         -0.26998        2.08504        2.34680
H          1.29882        1.40932        2.75961
H         -4.10069       -2.96881        0.14218
H         -1.11416       -3.24740       -1.20331
H         -3.55961       -1.94868        1.47487
H         -1.64572       -1.89881       -2.20398
H         -2.70770       -3.44836        1.10956
H         -2.77010       -3.16245       -1.78628
