38
../min.omega.0.chi1.120.phi1.240.log	Energy: -505585.7248090
N         -1.58822        0.06199        0.21266
C         -3.76745        0.94895       -0.62611
C         -2.84056       -0.20487       -0.29077
C         -0.80905       -0.93653        0.97970
C         -1.53204       -2.21668        1.39995
C          0.52730       -1.27221        0.32169
C          1.67759       -1.39863        1.10966
C          2.88947       -1.77452        0.54765
C          2.97158       -2.03334       -0.81943
C          1.83687       -1.91463       -1.60984
C          0.61848       -1.53868       -1.04394
C         -1.15275        1.42417        0.42273
O         -3.22633       -1.34561       -0.50467
C          0.10842        1.77202       -0.39948
C          2.38411        2.57512       -0.57637
C          1.34749        2.45102        1.65974
N          1.18559        2.34389        0.21878
O          0.05445        1.60361       -1.60690
H         -3.97652        1.56708        0.24034
H         -4.68846        0.51263       -0.98051
H         -3.35120        1.57640       -1.40595
H         -1.89196        2.12150        0.07198
H         -1.02228        1.60108        1.48140
H         -0.57022       -0.42740        1.91010
H          1.62094       -1.21031        2.16894
H          3.76321       -1.86686        1.16820
H          3.90974       -2.32271       -1.25830
H          1.89265       -2.10894       -2.66578
H         -0.25179       -1.43456       -1.66371
H         -1.71756       -2.87989        0.57213
H         -2.47522       -2.00298        1.88616
H         -0.88638       -2.71904        2.11364
H          2.79799        3.54725       -0.33355
H          1.55410        1.49328        2.12631
H          2.12676        2.54562       -1.62020
H          0.48341        2.89818        2.13092
H          3.13179        1.81392       -0.37383
H          2.18765        3.10336        1.85301
