38
../min.omega.0.chi1.255.phi1.300.log	Energy: -505594.0276334
N         -0.10743        0.80188        0.15922
C         -1.45632        2.36809       -1.25304
C         -0.32204        2.08621       -0.28513
C          0.99222        0.56872        1.12301
C          0.49427       -0.10824        2.40047
C          2.18425       -0.09333        0.43578
C          2.91131        0.65107       -0.50087
C          3.99678        0.09673       -1.16439
C          4.38254       -1.21731       -0.90531
C          3.67401       -1.96444        0.02539
C          2.58354       -1.40463        0.69136
C         -0.91107       -0.32987       -0.24401
O          0.39008        3.01290        0.07541
C         -2.40949       -0.20794        0.11300
C         -4.65895       -1.07554       -0.04462
C         -2.82728       -2.38696       -1.01928
N         -3.25884       -1.12323       -0.44414
O         -2.80569        0.68038        0.84992
H         -1.71380        1.53477       -1.89357
H         -1.15102        3.20637       -1.86266
H         -2.33222        2.64597       -0.68346
H         -0.81851       -0.49615       -1.31144
H         -0.51484       -1.21596        0.22786
H          1.30703        1.55846        1.40447
H          2.62359        1.66792       -0.69834
H          4.54467        0.68798       -1.87640
H          5.22555       -1.64602       -1.41711
H          3.96583       -2.97731        0.23980
H          2.06075       -2.00057        1.41667
H          0.14938       -1.12620        2.25656
H         -0.32821        0.46597        2.80859
H          1.29375       -0.13798        3.13285
H         -5.27027       -1.42923       -0.86599
H         -2.80725       -3.17915       -0.27419
H         -4.93070       -0.06229        0.19563
H         -1.84960       -2.31198       -1.46706
H         -4.84483       -1.70308        0.82317
H         -3.52308       -2.67362       -1.79761
