38
../min.omega.180.chi1.180.phi1.120.log	Energy: -498966.3709224
N         -2.04903       -0.10401        0.14679
C         -3.71144        0.24369        1.11337
C         -2.99957        0.86748       -0.07323
C         -1.03011       -1.15199        0.38362
C         -0.82292       -1.97783       -0.88653
C          0.42115       -0.68039        0.43857
C          0.85888        0.05168        1.54880
C          2.17473        0.48032        1.65206
C          3.09423        0.18855        0.64601
C          2.67595       -0.53677       -0.46099
C          1.35196       -0.96499       -0.55991
C         -1.09619        0.20029       -0.89681
O         -4.17700        0.82786       -0.40491
C          0.33563       -0.17069       -0.44649
C          2.63187        0.65417       -0.16698
C          0.88404        2.16599       -1.05873
N          1.24498        0.84296       -0.57402
O          0.64136       -1.28012       -0.03902
H         -3.68852       -0.95593        1.11414
H         -4.75584        0.56262        1.00102
H         -3.28964        0.64609        2.15481
H         -1.49722        0.95675       -1.60221
H         -0.27829        0.48237       -0.21723
H         -1.47400       -1.80436        1.13915
H          0.14819        0.27543        2.34919
H          2.49320        1.04160        2.53281
H          4.13296        0.52271        0.72959
H          3.38590       -0.77875       -1.25590
H          1.05354       -1.54607       -1.43317
H         -0.43597       -1.38523       -1.72279
H         -1.77730       -2.40723       -1.20018
H         -0.11519       -2.79140       -0.69554
H          3.31449        0.80126       -1.05450
H          0.98550        2.93685       -0.20927
H          2.79876       -0.37617        0.21259
H         -0.17882        2.23716       -1.47443
H          2.89617        1.39226        0.67499
H          1.58642        2.41837       -1.89760
