38
../min.omega.180.chi1.240.phi1.120.log	Energy: -505588.9371304
N         -0.60231        1.38943        0.11482
C          0.14854        3.63890       -0.67529
C         -0.93033        2.59214       -0.46733
C          0.61984        1.23766        0.93690
C          0.28027        1.09274        2.42075
C          1.60450        0.19726        0.40823
C          1.94933        0.19602       -0.94866
C          2.91896       -0.66644       -1.44040
C          3.56696       -1.55663       -0.58583
C          3.22892       -1.57385        0.76023
C          2.25713       -0.70163        1.25105
C         -1.68336        0.44413        0.27926
O         -2.06524        2.83184       -0.85510
C         -1.45633       -0.89236       -0.46225
C         -1.87449       -3.24654       -0.70798
C         -3.24013       -1.99358        0.88799
N         -2.05674       -2.01189        0.04343
O         -0.77555       -0.93324       -1.47419
H          0.35763        4.16757        0.24937
H         -0.24105        4.34796       -1.38983
H          1.07526        3.22152       -1.04613
H         -1.85227        0.26666        1.33015
H         -2.57723        0.89172       -0.12514
H          1.13350        2.18190        0.85798
H          1.42863        0.84098       -1.62904
H          3.15906       -0.65280       -2.48826
H          4.31629       -2.22716       -0.96693
H          3.71498       -2.25852        1.43229
H          2.02507       -0.73818        2.29817
H         -0.11648        0.11702        2.67419
H         -0.44945        1.84326        2.70459
H          1.16794        1.25175        3.02161
H         -2.03672       -4.08455       -0.04083
H         -4.14573       -2.10667        0.29628
H         -0.87204       -3.28754       -1.09898
H         -3.32096       -1.07921        1.45182
H         -2.57456       -3.31816       -1.53634
H         -3.19104       -2.81612        1.59159
