38
../min.omega.0.chi1.120.phi1.300.log	Energy: -505588.5599991
N          0.16532        1.30084        0.42875
C          2.14196        2.49778       -0.53349
C          0.65209        2.38189       -0.26939
C         -1.23531        1.15952        0.88781
C         -2.15159        2.37518        0.74389
C         -1.88859       -0.08043        0.28179
C         -2.67624       -0.91435        1.08444
C         -3.32418       -2.01725        0.54631
C         -3.19114       -2.30953       -0.80998
C         -2.40832       -1.49240       -1.61367
C         -1.75930       -0.38202       -1.07342
C          1.02938        0.25527        0.92826
O         -0.07564        3.25227       -0.72624
C          1.83631       -0.49211       -0.15703
C          3.47367       -2.17186       -0.72627
C          2.81854       -1.91848        1.62742
N          2.78576       -1.37378        0.27973
O          1.63760       -0.29051       -1.34406
H          2.77805        2.00297        0.18813
H          2.37192        3.55395       -0.54322
H          2.34617        2.08616       -1.51101
H          1.71471        0.64082        1.67631
H          0.41110       -0.47948        1.42327
H         -1.15919        0.97973        1.95759
H         -2.78415       -0.69573        2.13375
H         -3.92539       -2.64710        1.17778
H         -3.68944       -3.16537       -1.22915
H         -2.29555       -1.71369       -2.65987
H         -1.14107        0.23291       -1.69934
H         -2.38398        2.59853       -0.28418
H         -1.72011        3.25733        1.19560
H         -3.07229        2.13331        1.26656
H          4.46539       -2.41350       -0.36393
H          2.17259       -2.78774        1.72789
H          3.55268       -1.60875       -1.63999
H          2.52803       -1.18544        2.36320
H          2.94136       -3.09711       -0.93060
H          3.83211       -2.22254        1.85414
