38
../min.omega.180.chi1.255.phi1.120.log	Energy: -505588.8340218
N         -0.31707        1.36733        0.15564
C          1.04560        3.29017       -0.66624
C         -0.28470        2.58128       -0.49112
C          0.80087        0.94183        1.02837
C          0.30464        0.60546        2.43504
C          1.71320       -0.12448        0.42658
C          1.84973       -0.26499       -0.95966
C          2.76710       -1.15330       -1.50294
C          3.57640       -1.92945       -0.67513
C          3.44997       -1.80410        0.70136
C          2.52840       -0.90770        1.24284
C         -1.62007        0.75478        0.28326
O         -1.29298        3.09298       -0.95736
C         -1.75171       -0.63281       -0.38370
C         -2.93083       -2.71396       -0.63347
C         -3.96347       -0.95332        0.71549
N         -2.76351       -1.44111        0.05504
O         -0.98985       -0.98660       -1.26888
H          1.28292        3.86804        0.22184
H          0.92639        3.97756       -1.49028
H          1.86678        2.61642       -0.86670
H         -1.89372        0.68221        1.32408
H         -2.33159        1.41125       -0.19190
H          1.41576        1.82047        1.15419
H          1.20716        0.28552       -1.61450
H          2.84123       -1.24764       -2.57143
H          4.28447       -2.61985       -1.09736
H          4.06124       -2.39636        1.35890
H          2.46625       -0.83703        2.31188
H         -0.20321       -0.35096        2.48232
H         -0.36704        1.37925        2.78944
H          1.13711        0.57072        3.12488
H         -3.44881       -3.39936        0.02634
H         -4.75137       -0.73918       -0.00322
H         -1.96570       -3.11896       -0.88593
H         -3.77572       -0.05907        1.28629
H         -3.51054       -2.60195       -1.54610
H         -4.32563       -1.71215        1.39831
