38
../min.omega.180.chi1.210.phi1.60.log	Energy: -505594.0751371
N         -0.21576        1.03370       -0.04794
C         -0.68323        3.04532       -1.45355
C         -1.14907        1.88284       -0.59651
C          1.20109        1.42354        0.13384
C          1.37321        2.24834        1.40985
C          2.12562        0.21196        0.03974
C          1.95039       -0.69417       -1.01299
C          2.80814       -1.77353       -1.17130
C          3.86380       -1.97066       -0.28285
C          4.04512       -1.08060        0.76660
C          3.18093        0.00271        0.92675
C         -0.77066       -0.03692        0.74903
O         -2.34298        1.69255       -0.41155
C         -1.70923       -0.92372       -0.09963
C         -3.71326       -2.23220       -0.34214
C         -3.43864       -0.81688        1.66663
N         -2.83286       -1.42775        0.49449
O         -1.37195       -1.23513       -1.23031
H         -0.13429        3.77730       -0.87205
H         -1.56442        3.51342       -1.86531
H         -0.04596        2.70420       -2.26116
H          0.03252       -0.67881        1.08109
H         -1.27122        0.35830        1.61984
H          1.44707        2.05898       -0.70463
H          1.11851       -0.57497       -1.68075
H          2.64907       -2.46165       -1.98185
H          4.52793       -2.80731       -0.40595
H          4.85204       -1.22216        1.46328
H          3.34840        0.67188        1.74872
H          1.19151        1.65278        2.29827
H          0.67044        3.07390        1.41501
H          2.37122        2.66602        1.47904
H         -4.24186       -2.94251        0.28181
H         -3.69708        0.22131        1.49455
H         -3.12606       -2.76519       -1.06987
H         -2.79236       -0.88681        2.53276
H         -4.43850       -1.61394       -0.86445
H         -4.34251       -1.36182        1.89982
