38
../min.omega.180.chi1.255.phi1.0.log	Energy: -505588.1878571
N          0.25333        0.72133        0.04941
C          0.27447        2.25733        2.01814
C          0.86276        1.10796        1.22079
C         -1.05360        1.26568       -0.38431
C         -0.95808        1.84287       -1.79705
C         -2.19057        0.26515       -0.19000
C         -2.13584       -0.68516        0.83662
C         -3.19469       -1.55173        1.06836
C         -4.34272       -1.48769        0.28060
C         -4.41104       -0.55017       -0.74058
C         -3.34285        0.31629       -0.97352
C          0.76119       -0.36481       -0.75786
O          1.89450        0.58038        1.61195
C          2.02864       -1.11297       -0.28733
C          4.41088       -1.39666       -0.22650
C          3.50721        0.75026       -0.97735
N          3.24964       -0.65278       -0.69592
O          1.88793       -2.19495        0.25919
H          0.24368        3.16922        1.43236
H          0.91933        2.40583        2.87053
H         -0.72872        2.04098        2.36691
H          0.01419       -1.14245       -0.81588
H          0.93608       -0.00539       -1.76436
H         -1.26177        2.10040        0.26439
H         -1.25480       -0.77070        1.44461
H         -3.12068       -2.27875        1.85676
H         -5.16230       -2.16012        0.45870
H         -5.28696       -0.48891       -1.36133
H         -3.42944        1.02728       -1.77290
H         -0.93446        1.07599       -2.56169
H         -0.06155        2.44665       -1.88291
H         -1.80440        2.48698       -2.00212
H          5.25312       -1.16535       -0.86782
H          3.85831        1.26955       -0.09206
H          4.20662       -2.45323       -0.27089
H          2.61683        1.24730       -1.32996
H          4.66082       -1.13004        0.79664
H          4.26140        0.82329       -1.75250
