38
../min.omega.180.chi1.90.phi1.330.log	Energy: -505587.6795506
N         -0.21154        0.69726       -0.18909
C          0.20070        1.99499        1.91875
C         -0.69439        1.17631        1.00689
C          1.09327        1.02235       -0.80900
C          1.47460        2.50281       -0.77793
C          2.20139        0.06342       -0.38005
C          3.52951        0.31749       -0.74282
C          4.54588       -0.56446       -0.40375
C          4.25677       -1.72694        0.30879
C          2.94263       -1.99156        0.66854
C          1.92102       -1.10502        0.32735
C         -1.08264       -0.08020       -1.04117
O         -1.86155        0.99962        1.32686
C         -2.16234       -0.89883       -0.29842
C         -4.42599       -1.55224        0.10366
C         -4.01334        0.66748       -0.81417
N         -3.48323       -0.66254       -0.56104
O         -1.78662       -1.86110        0.35122
H          1.23145        1.67084        1.91269
H         -0.20329        1.89989        2.91609
H          0.15093        3.03778        1.63079
H         -1.50901        0.54466       -1.81642
H         -0.48620       -0.83886       -1.52897
H          0.91522        0.81754       -1.85846
H          3.78179        1.20441       -1.29459
H          5.55856       -0.34552       -0.69212
H          5.04303       -2.41050        0.57427
H          2.70082       -2.88577        1.21426
H          0.91223       -1.34095        0.60754
H          1.96771        2.80559        0.13385
H          0.59355        3.11759       -0.92414
H          2.15126        2.71585       -1.59646
H         -4.55981       -1.27885        1.14647
H         -4.87967        0.58324       -1.45998
H         -4.06709       -2.56690        0.05576
H         -3.29003        1.29897       -1.30210
H         -5.38034       -1.48424       -0.40442
H         -4.30477        1.15042        0.11209
