38
../min.omega.0.chi1.300.phi1.270.log	Energy: -505591.6215111
N          0.17681        0.48577        0.00653
C          0.72290        2.71993        0.96622
C         -0.16562        1.81203        0.13608
C         -0.71809       -0.34819       -0.82782
C         -0.18924       -1.76437       -1.05779
C         -2.15151       -0.39180       -0.30349
C         -3.22447       -0.18141       -1.17786
C         -4.53437       -0.30259       -0.73594
C         -4.80134       -0.63241        0.59169
C         -3.74613       -0.83955        1.46922
C         -2.42988       -0.72464        1.02165
C          1.35702       -0.05728        0.64019
O         -1.14808        2.26886       -0.43130
C          2.61248        0.02834       -0.25651
C          4.94086       -0.55156       -0.62994
C          3.82856       -1.35732        1.41636
N          3.76800       -0.51425        0.23331
O          2.55749        0.59000       -1.33849
H          0.71254        2.44049        2.01499
H          0.33084        3.72075        0.87002
H          1.74631        2.70029        0.61096
H          1.55961        0.46571        1.56367
H          1.18224       -1.08563        0.91499
H         -0.75015        0.13693       -1.79410
H         -3.02892        0.09709       -2.19801
H         -5.34591       -0.13004       -1.42031
H         -5.81701       -0.71988        0.93391
H         -3.94020       -1.09073        2.49711
H         -1.62232       -0.88552        1.71496
H         -0.19542       -2.36655       -0.15574
H          0.80942       -1.75428       -1.47937
H         -0.84314       -2.25379       -1.76957
H          5.82294       -0.30745       -0.04921
H          3.62805       -2.40114        1.18559
H          4.82162        0.16716       -1.42165
H          3.13543       -1.02984        2.17628
H          5.07441       -1.53910       -1.06403
H          4.82370       -1.29102        1.83652
