38
../min.omega.180.chi1.210.phi1.90.log	Energy: -505593.6922415
N         -0.49015        1.32662        0.06912
C         -0.81224        3.50707       -1.09691
C         -1.36444        2.29128       -0.37592
C          0.94703        1.60786        0.28794
C          1.16945        2.28572        1.64041
C          1.80686        0.36759        0.05571
C          1.80747       -0.22233       -1.21395
C          2.61025       -1.32044       -1.48873
C          3.43303       -1.85425       -0.49841
C          3.43993       -1.28057        0.76541
C          2.63269       -0.17620        1.03885
C         -1.09697        0.20232        0.74515
O         -2.57242        2.16136       -0.23543
C         -1.46120       -0.93512       -0.23523
C         -2.47293       -3.10475       -0.58916
C         -2.50506       -2.13470        1.67314
N         -1.98995       -2.06967        0.31502
O         -1.26852       -0.82502       -1.43519
H         -0.19776        4.12301       -0.45039
H         -1.65694        4.08752       -1.43525
H         -0.21549        3.21077       -1.95210
H         -0.40200       -0.18965        1.47524
H         -1.98858        0.52370        1.26112
H          1.23459        2.31272       -0.47756
H          1.15360        0.16134       -1.97339
H          2.59072       -1.76048       -2.46938
H          4.05576       -2.70461       -0.71146
H          4.06932       -1.68268        1.53918
H          2.66526        0.25011        2.02357
H          0.87966        1.64750        2.46804
H          0.57378        3.18925        1.70342
H          2.20988        2.56157        1.77313
H         -2.32168       -4.07496       -0.13058
H         -3.52501       -1.76345        1.74235
H         -1.92379       -3.05465       -1.51315
H         -1.88654       -1.57779        2.36019
H         -3.53188       -2.98147       -0.80227
H         -2.49798       -3.16792        1.99558
