38
../min.omega.180.chi1.255.phi1.150.log	Energy: -505587.9056516
N         -0.27562        1.22849        0.04273
C          1.14457        3.16830       -0.60801
C         -0.21525        2.51707       -0.43574
C          0.79921        0.78438        0.95925
C          0.23798        0.23258        2.27023
C          1.82314       -0.15280        0.32303
C          1.74625       -0.58067       -1.00778
C          2.74679       -1.36742       -1.56072
C          3.85471       -1.74353       -0.80329
C          3.95177       -1.31343        0.51277
C          2.94652       -0.51844        1.06369
C         -1.63102        0.73896        0.15480
O         -1.21435        3.13376       -0.77829
C         -1.83814       -0.78167       -0.02514
C         -3.40418       -2.61270       -0.25743
C         -4.28566       -0.32170       -0.08264
N         -3.13684       -1.20728        0.01738
O         -0.90882       -1.56004       -0.16537
H          1.41050        3.72147        0.28741
H          1.05123        3.87734       -1.41770
H          1.93126        2.46003       -0.82593
H         -2.07843        1.02453        1.10202
H         -2.20039        1.24351       -0.60613
H          1.34262        1.67514        1.23816
H          0.89419       -0.31574       -1.59844
H          2.66012       -1.69147       -2.58262
H          4.62648       -2.35533       -1.23507
H          4.80366       -1.58356        1.11120
H          3.05912       -0.18106        2.07913
H         -0.26174       -0.71456        2.13095
H         -0.44567        0.94201        2.72514
H          1.04593        0.07529        2.97254
H         -4.22546       -2.94680        0.36552
H         -4.52199       -0.07484       -1.11498
H         -2.52620       -3.19401       -0.03655
H         -4.13557        0.59450        0.46640
H         -3.67495       -2.76542       -1.29915
H         -5.14228       -0.82278        0.34868
