38
../min.omega.180.chi1.150.phi1.90.log	Energy: -505589.6283057
N          0.24904        1.20884       -0.24328
C          0.50249        3.73298       -0.10604
C          0.97432        2.34773       -0.50770
C         -0.78283        0.96473        0.79023
C         -1.56893        2.16362        1.32203
C         -1.79119       -0.06899        0.29410
C         -2.06714       -1.20272        1.06777
C         -3.02650       -2.12125        0.66561
C         -3.72750       -1.92723       -0.52334
C         -3.45921       -0.80956       -1.30133
C         -2.49778        0.11540       -0.89375
C          0.89908        0.00910       -0.72011
O          2.02188        2.27709       -1.13497
C          1.83685       -0.62409        0.33214
C          3.48518       -2.31480        0.88005
C          2.59344       -2.21733       -1.41396
N          2.49449       -1.76506       -0.03566
O          1.95064       -0.14096        1.44694
H          0.69605        3.91211        0.94422
H         -0.54416        3.90443       -0.30341
H          1.09670        4.42569       -0.68241
H          0.14984       -0.72198       -0.98589
H          1.46238        0.24730       -1.60390
H         -0.26750        0.53418        1.63597
H         -1.52434       -1.36429        1.98280
H         -3.22478       -2.98707        1.27186
H         -4.46870       -2.64051       -0.83626
H         -3.99267       -0.65223       -2.22185
H         -2.29067        0.97323       -1.50877
H         -2.12561        2.67595        0.54749
H         -0.94807        2.87299        1.84841
H         -2.28839        1.77648        2.03384
H          3.46489       -3.39677        0.81937
H          3.39203       -1.71322       -1.95276
H          3.25200       -2.00678        1.88436
H          1.66681       -2.06966       -1.94694
H          4.48574       -1.97143        0.62973
H          2.80204       -3.27942       -1.41322
