38
../min.omega.0.chi1.120.phi1.90.log	Energy: -505592.2766247
N          0.16099        1.03406       -0.15172
C          1.60885        2.64763       -1.36139
C          0.42851        2.34903       -0.45556
C         -0.73685        0.58801        0.93796
C         -1.24035        1.65832        1.90700
C         -1.88720       -0.24045        0.37063
C         -2.17144       -1.51013        0.88750
C         -3.23732       -2.25416        0.40155
C         -4.04031       -1.74227       -0.61620
C         -3.76824       -0.48481       -1.13696
C         -2.69768        0.26293       -0.64623
C          0.97898       -0.03483       -0.67867
O         -0.27707        3.27255       -0.07463
C          2.17062       -0.39181        0.23791
C          4.07689       -1.81080        0.71831
C          2.77965       -2.23099       -1.32838
N          2.88463       -1.51766       -0.06578
O          2.43879        0.31255        1.19766
H          2.52524        2.20559       -0.99085
H          1.71561        3.72102       -1.39500
H          1.42842        2.28751       -2.36924
H          0.34782       -0.90543       -0.79852
H          1.34909        0.20750       -1.66351
H         -0.12899       -0.07886        1.53755
H         -1.55626       -1.91305        1.67410
H         -3.44132       -3.22805        0.80990
H         -4.86549       -2.31882       -0.99436
H         -4.38474       -0.08089       -1.92027
H         -2.49440        1.23848       -1.05048
H         -1.94091        2.33906        1.45209
H         -0.41838        2.23023        2.31461
H         -1.73560        1.13692        2.72058
H          4.16217       -2.88335        0.84768
H          3.48735       -1.85410       -2.06343
H          3.99671       -1.33737        1.68126
H          1.78573       -2.16883       -1.74192
H          4.97316       -1.44949        0.22048
H          2.99710       -3.27770       -1.15734
