38
../min.omega.0.chi1.225.phi1.210.log	Energy: -505589.6802465
N          1.65671        0.08993        0.03197
C          3.51146        0.89382       -1.43613
C          2.96380       -0.04399       -0.37619
C          1.09760       -1.06968        0.76353
C          1.25981       -0.94047        2.27849
C         -0.30240       -1.43180        0.27325
C         -0.43776       -2.01642       -0.99165
C         -1.67817       -2.40430       -1.47818
C         -2.81931       -2.22188       -0.69897
C         -2.70058       -1.65106        0.56058
C         -1.45202       -1.25807        1.04297
C          0.82678        1.11871       -0.55295
O          3.68217       -0.93134        0.06243
C         -0.27632        1.67625        0.37436
C         -2.45832        2.69327        0.62446
C         -1.74488        1.94440       -1.62213
N         -1.39816        2.17349       -0.22880
O         -0.08877        1.76564        1.57685
H          2.88654        0.90890       -2.32203
H          4.49535        0.53511       -1.69669
H          3.59924        1.91023       -1.06680
H          1.43406        1.98232       -0.78268
H          0.39160        0.77383       -1.48042
H          1.72795       -1.89411        0.47077
H          0.44100       -2.17959       -1.59222
H         -1.75488       -2.85812       -2.45027
H         -3.78162       -2.52946       -1.06744
H         -3.57312       -1.51335        1.17418
H         -1.38239       -0.81181        2.01604
H          0.71765       -0.10238        2.68541
H          2.31195       -0.80871        2.49712
H          0.92931       -1.85655        2.75986
H         -2.87288        3.58974        0.17871
H         -1.95984        0.90149       -1.82838
H         -2.05206        2.93128        1.59165
H         -0.96692        2.28738       -2.29210
H         -3.25374        1.96271        0.74362
H         -2.63239        2.52001       -1.84348
