38
../min.omega.0.chi1.315.phi1.210.log	Energy: -505581.2886754
N          0.21145        1.03485       -0.30891
C         -0.27253        2.89003        1.31106
C         -0.61234        2.06444        0.08394
C         -0.49038       -0.03813       -1.04961
C          0.33684       -1.29295       -1.33118
C         -1.81205       -0.45115       -0.40610
C         -2.99662       -0.42516       -1.15186
C         -4.19052       -0.87740       -0.60790
C         -4.23111       -1.35997        0.69905
C         -3.06514       -1.38750        1.45150
C         -1.86465       -0.94203        0.89794
C          1.39343        0.77680        0.48207
O         -1.62926        2.32639       -0.54303
C          2.58474        0.19275       -0.30991
C          4.57416       -1.20218       -0.35251
C          3.18969       -1.16013        1.70136
N          3.40997       -0.67662        0.34794
O          2.81054        0.58294       -1.44389
H         -0.10235        2.26732        2.18236
H         -1.11517        3.53898        1.49318
H          0.60861        3.50316        1.15315
H          1.77672        1.71387        0.85589
H          1.16921        0.16017        1.34353
H         -0.73552        0.39453       -2.00869
H         -2.98190       -0.02828       -2.15068
H         -5.09031       -0.84284       -1.19593
H         -5.15818       -1.70436        1.12113
H         -3.08233       -1.75785        2.46136
H         -0.97013       -0.98418        1.49558
H          0.68773       -1.77591       -0.42430
H          1.17571       -1.08748       -1.97668
H         -0.31099       -2.00236       -1.83191
H          5.48022       -0.96114        0.19359
H          2.31999       -1.80520        1.77469
H          4.62326       -0.76302       -1.33296
H          3.08841       -0.35068        2.41420
H          4.50243       -2.28136       -0.44583
H          4.05341       -1.74002        1.99326
