38
../min.omega.180.chi1.210.phi1.330.log	Energy: -505590.9444428
N         -0.15552        0.79026       -0.19640
C         -0.65949        3.11386       -0.95102
C         -1.09640        1.69723       -0.62672
C          1.11317        1.23868        0.42153
C          0.91607        1.57845        1.89931
C          2.22384        0.23045        0.13627
C          2.56591       -0.02678       -1.19673
C          3.58293       -0.91455       -1.51816
C          4.28525       -1.56765       -0.50680
C          3.95748       -1.32125        0.81920
C          2.93461       -0.42819        1.13891
C         -0.58001       -0.55696        0.11037
O         -2.24054        1.34851       -0.88203
C         -2.03310       -0.68268        0.62056
C         -4.23465       -1.61225        0.55267
C         -2.93879       -1.57157       -1.51106
N         -2.92133       -1.46768       -0.06091
O         -2.27977       -0.22284        1.72367
H         -0.30720        3.65284       -0.07979
H         -1.51944        3.62478       -1.35608
H          0.13423        3.10642       -1.68973
H         -0.38729       -1.20398       -0.73273
H          0.01235       -0.93132        0.93002
H          1.40021        2.14557       -0.08908
H          2.02567        0.46885       -1.98425
H          3.82856       -1.09576       -2.54925
H          5.07408       -2.25568       -0.75204
H          4.49145       -1.81928        1.60848
H          2.70305       -0.25732        2.17291
H          0.56603        0.72796        2.47066
H          0.16712        2.35479        2.00001
H          1.83886        1.94130        2.33915
H         -4.85097       -0.73421        0.38068
H         -3.31453       -2.54965       -1.78864
H         -4.12804       -1.75638        1.61499
H         -1.95419       -1.45735       -1.93143
H         -4.72400       -2.47649        0.11985
H         -3.57647       -0.80929       -1.94564
