38
../min.omega.0.chi1.15.phi1.210.log	Energy: -505580.7461966
N          0.25201        0.86096       -0.06605
C          0.33424        3.30808       -0.49227
C         -0.44874        2.02647       -0.27475
C         -0.36666       -0.42535        0.32786
C          0.07651       -0.78826        1.74561
C         -1.88072       -0.54560        0.17081
C         -2.37676       -1.00649       -1.05458
C         -3.73423       -1.22471       -1.24287
C         -4.62871       -0.99956       -0.19795
C         -4.14862       -0.55558        1.02631
C         -2.78407       -0.33246        1.21140
C          1.69637        0.91675       -0.06467
O         -1.66973        2.09594       -0.26066
C          2.40827       -0.36822       -0.54387
C          4.34244       -1.83160       -0.43591
C          4.24267        0.13273        1.07222
N          3.59386       -0.68427        0.05950
O          1.95414       -1.01721       -1.47217
H          1.06389        3.48621        0.28963
H         -0.38644        4.11093       -0.49590
H          0.85250        3.30590       -1.44573
H          2.03928        1.66411       -0.76472
H          2.06413        1.20463        0.91135
H          0.04495       -1.15834       -0.34220
H         -1.69070       -1.18854       -1.86346
H         -4.09295       -1.57474       -2.19452
H         -5.68096       -1.17200       -0.33830
H         -4.82907       -0.37859        1.84037
H         -2.44358        0.02465        2.16497
H         -0.21354       -0.02834        2.46296
H          1.15297       -0.90734        1.81061
H         -0.36757       -1.73003        2.04579
H          5.23347       -1.51050       -0.96714
H          3.69224        0.14361        2.00609
H          3.71983       -2.39885       -1.10468
H          4.39578        1.15422        0.74238
H          4.64144       -2.45893        0.39625
H          5.21596       -0.29201        1.27063
