38
../min.omega.180.chi1.225.phi1.180.log	Energy: -505589.0414143
N          1.61157        0.01854       -0.06379
C          3.41922       -1.63784       -0.59905
C          2.90069       -0.21635       -0.48330
C          0.93342       -0.97888        0.79514
C          1.13040       -0.70038        2.28570
C         -0.49894       -1.26574        0.35067
C         -0.70952       -1.81596       -0.91936
C         -1.98095       -2.17072       -1.34763
C         -3.07705       -1.98259       -0.50751
C         -2.88334       -1.43738        0.75410
C         -1.60383       -1.08158        1.18107
C          1.29830        1.42882       -0.01589
O          3.62178        0.70801       -0.83179
C         -0.12259        1.82883        0.44088
C         -2.36416        2.58636       -0.11602
C         -0.95954        1.66610       -1.91400
N         -1.06327        2.07106       -0.52142
O         -0.34268        2.03718        1.62295
H          3.63784       -2.06282        0.37475
H          4.33776       -1.58683       -1.16373
H          2.71997       -2.29163       -1.10551
H          1.94293        1.93006        0.69513
H          1.51552        1.85784       -0.97891
H          1.45408       -1.90145        0.60150
H          0.12910       -1.96774       -1.57618
H         -2.11684       -2.59736       -2.32549
H         -4.06323       -2.26102       -0.83325
H         -3.72104       -1.28723        1.41141
H         -1.48127       -0.64925        2.15492
H          0.66720        0.21954        2.60621
H          2.19367       -0.63398        2.49530
H          0.72935       -1.52121        2.87129
H         -2.71122        3.29255       -0.86219
H         -1.82059        1.06374       -2.17918
H         -2.27481        3.08379        0.83453
H         -0.08050        1.06892       -2.08691
H         -3.09018        1.78364       -0.03119
H         -0.93134        2.53550       -2.56411
