38
../min.omega.0.chi1.225.phi1.90.log	Energy: -505595.0824505
N          1.59967       -0.25143        0.22056
C          3.53443        1.16761       -0.42795
C          2.82464       -0.17342       -0.40103
C          0.96692       -1.58447        0.34346
C          1.28790       -2.20410        1.70404
C         -0.51514       -1.54944       -0.02228
C         -0.87296       -1.31136       -1.35470
C         -2.20468       -1.29807       -1.74476
C         -3.21201       -1.52617       -0.80887
C         -2.87214       -1.76612        0.51526
C         -1.53233       -1.77821        0.90360
C          0.95911        0.88246        0.84769
O          3.35612       -1.16122       -0.88852
C          0.04871        1.67025       -0.12089
C         -1.91630        3.03892       -0.50113
C         -1.44299        2.24070        1.78799
N         -0.99468        2.37559        0.41145
O          0.32987        1.70992       -1.30771
H          2.90227        1.94336       -0.83807
H          4.41538        1.05186       -1.04088
H          3.84264        1.45464        0.57295
H          0.39731        0.51951        1.69319
H          1.68858        1.57948        1.23882
H          1.45949       -2.18551       -0.40166
H         -0.10306       -1.11870       -2.07880
H         -2.45615       -1.11220       -2.77340
H         -4.24391       -1.52125       -1.11162
H         -3.63969       -1.95177        1.24562
H         -1.29537       -1.98075        1.93168
H          0.91215       -1.61424        2.53458
H          2.36328       -2.28228        1.80846
H          0.86719       -3.20086        1.78295
H         -2.82747        2.45919       -0.61914
H         -2.09280        3.07508        2.01399
H         -1.44407        3.15088       -1.46120
H         -0.61559        2.28442        2.48270
H         -2.17284        4.01645       -0.10916
H         -1.99920        1.32248        1.95217
