38
../min.omega.0.chi1.195.phi1.0.log	Energy: -505584.3408833
N         -0.25717        0.94228       -0.24169
C         -2.62197        1.68088       -0.76691
C         -1.16584        1.95616       -0.44011
C          1.07261        1.39321        0.22823
C          0.98771        1.93307        1.65633
C          2.14761        0.31761        0.09053
C          2.75002        0.14010       -1.16073
C          3.74935       -0.80294       -1.35520
C          4.17900       -1.59168       -0.28940
C          3.59951       -1.42126        0.96022
C          2.59354       -0.47335        1.14873
C         -0.46553       -0.48708       -0.29493
O         -0.80412        3.12154       -0.35700
C         -1.86169       -1.06949       -0.60975
C         -3.93697       -2.07221        0.17553
C         -2.48487       -0.93372        1.80983
N         -2.68906       -1.36762        0.43722
O         -2.14096       -1.35452       -1.76297
H         -2.73726        1.05475       -1.63967
H         -3.07283        2.64420       -0.95010
H         -3.13129        1.21059        0.06417
H          0.14350       -0.90354       -1.08245
H         -0.12419       -0.92891        0.63077
H          1.35473        2.21192       -0.41440
H          2.42806        0.74843       -1.98818
H          4.19439       -0.91898       -2.32704
H          4.95573       -2.32102       -0.43290
H          3.92707       -2.01837        1.79248
H          2.17164       -0.36091        2.12946
H          0.60776        1.18473        2.34582
H          0.33389        2.79030        1.69093
H          1.96966        2.23797        2.00223
H         -4.07487       -2.84584        0.92300
H         -1.72042       -0.17640        1.87483
H         -3.89711       -2.51926       -0.80256
H         -2.21085       -1.76829        2.44830
H         -4.78307       -1.39219        0.22201
H         -3.40518       -0.50384        2.19020
