38
../min.omega.0.chi1.135.phi1.210.log	Energy: -505580.3983486
N         -1.60862        0.00863       -0.05095
C         -3.91999        0.85494       -0.50934
C         -2.93915       -0.27506       -0.25643
C         -0.79751       -0.81305        0.87612
C         -1.44683       -2.06519        1.46657
C          0.56664       -1.17997        0.29649
C          1.69346       -1.18693        1.12731
C          2.92721       -1.60874        0.65220
C          3.05529       -2.03676       -0.66804
C          1.94377       -2.03986       -1.49926
C          0.70355       -1.61720       -1.02046
C         -1.23145        1.40338       -0.09226
O         -3.36733       -1.42060       -0.27174
C          0.20825        1.68327       -0.57859
C          2.41186        2.62123       -0.32562
C          1.04528        2.41283        1.68848
N          1.10471        2.31356        0.23911
O          0.45683        1.46100       -1.75245
H         -3.85134        1.64206        0.23236
H         -4.90648        0.41844       -0.48244
H         -3.76763        1.29778       -1.48778
H         -1.81186        1.90572       -0.84503
H         -1.43622        1.89100        0.85476
H         -0.60557       -0.16332        1.72844
H          1.60136       -0.87039        2.15275
H          3.78231       -1.60741        1.30478
H          4.01066       -2.36168       -1.03958
H          2.03499       -2.36433       -2.52011
H         -0.14838       -1.60523       -1.67346
H         -1.62790       -2.82413        0.72312
H         -2.38007       -1.84689        1.96674
H         -0.74981       -2.45558        2.20089
H          2.80904        3.49770        0.17282
H          1.79423        1.77188        2.14265
H          2.31519        2.81860       -1.37921
H          0.08195        2.13129        2.07639
H          3.10015        1.79343       -0.18481
H          1.24454        3.43528        1.98999
