38
../min.omega.180.chi1.60.phi1.330.log	Energy: -505589.2855770
N          0.23962       -0.82255       -0.27719
C         -0.58534       -1.43880        2.01820
C          0.47836       -0.90772        1.07513
C         -1.07199       -1.04836       -0.92617
C         -1.45226       -2.52939       -0.93300
C         -2.16161       -0.09173       -0.44752
C         -1.83294        1.23615       -0.14960
C         -2.81563        2.14203        0.22391
C         -4.14925        1.74537        0.30609
C         -4.48623        0.43220        0.00869
C         -3.49880       -0.47870       -0.36718
C          1.28711       -0.30937       -1.13084
O          1.58878       -0.66136        1.52472
C          2.23110        0.72012       -0.47007
C          4.39840        1.53566        0.12429
C          4.11102       -0.86732       -0.16430
N          3.57221        0.46080       -0.40889
O          1.76619        1.81756       -0.20805
H         -1.59829       -1.20789        1.73421
H         -0.37559       -1.02453        2.99360
H         -0.46954       -2.51608        2.07847
H          1.83656       -1.12244       -1.58792
H          0.83235        0.25699       -1.93010
H         -0.89294       -0.79715       -1.96293
H         -0.81014        1.56283       -0.19685
H         -2.53944        3.15568        0.45227
H         -4.90828        2.44856        0.59828
H         -5.51016        0.10893        0.06859
H         -3.79119       -1.48740       -0.58954
H         -1.78543       -2.88680        0.03273
H         -0.59274       -3.11690       -1.23462
H         -2.24478       -2.71591       -1.64860
H          4.33470        1.58336        1.20769
H          3.47248       -1.63696       -0.56344
H          4.07763        2.48024       -0.28266
H          4.22339       -1.04847        0.89897
H          5.42730        1.35256       -0.16086
H          5.07980       -0.94688       -0.64381
