38
../min.omega.0.chi1.255.phi1.150.log	Energy: -505585.6337837
N         -0.41827        1.40444        0.09302
C         -1.30618        3.52568       -0.87425
C         -0.22513        2.74483       -0.15000
C          0.46173        0.78267        1.10864
C         -0.35183        0.14204        2.23373
C          1.56029       -0.09778        0.51748
C          2.45297        0.46754       -0.40099
C          3.50138       -0.27545       -0.92500
C          3.68828       -1.60108       -0.53715
C          2.81649       -2.16964        0.38108
C          1.76169       -1.42200        0.90497
C         -1.64146        0.77075       -0.34465
O          0.77825        3.33279        0.22865
C         -1.49467       -0.72612       -0.69879
C         -2.33385       -2.98780       -0.66826
C         -3.58552       -1.24214        0.55897
N         -2.38713       -1.61877       -0.17319
O         -0.62944       -1.05903       -1.49232
H         -1.38675        3.22261       -1.91284
H         -1.02143        4.56590       -0.83894
H         -2.27725        3.40108       -0.40886
H         -2.43505        0.92943        0.37357
H         -1.95962        1.21305       -1.27570
H          0.97099        1.62345        1.54888
H          2.32799        1.49305       -0.69337
H          4.17458        0.17898       -1.63013
H          4.50171       -2.17610       -0.94253
H          2.94938       -3.19085        0.69208
H          1.10298       -1.89114        1.61159
H         -0.88722       -0.74930        1.93229
H         -1.06741        0.85949        2.62249
H          0.30978       -0.13289        3.04675
H         -2.56091       -3.66915        0.14262
H         -4.30184       -0.70723       -0.05881
H         -1.34585       -3.19194       -1.04161
H         -3.35679       -0.64363        1.42985
H         -3.05203       -3.14689       -1.46844
H         -4.06315       -2.14665        0.90705
