38
../min.omega.0.chi1.285.phi1.30.log	Energy: -505586.2185523
N         -0.19867       -0.93549        0.07358
C         -1.51483       -0.62987        2.20572
C         -0.27566       -1.05851        1.44177
C          1.11618       -1.29191       -0.50661
C          1.03566       -1.68897       -1.98105
C          2.18818       -0.22986       -0.27343
C          3.53063       -0.62645       -0.24863
C          4.54810        0.30485       -0.09627
C          4.24214        1.65804        0.03765
C          2.91389        2.06046        0.02314
C          1.89067        1.12501       -0.13179
C         -1.20973       -0.41409       -0.81816
O          0.66922       -1.51355        2.07105
C         -2.16647        0.66603       -0.26538
C         -4.40880        1.58981       -0.11389
C         -4.14036       -0.74338       -0.88509
N         -3.51209        0.48531       -0.42722
O         -1.69438        1.69135        0.19833
H         -1.50143        0.44179        2.34768
H         -1.46548       -1.11867        3.16723
H         -2.44209       -0.90145        1.71746
H         -0.71687        0.11901       -1.61725
H         -1.75831       -1.22327       -1.27890
H          1.42749       -2.17084        0.03495
H          3.77819       -1.67083       -0.33419
H          5.57263       -0.02182       -0.07217
H          5.02823        2.38150        0.16073
H          2.66462        3.10052        0.13728
H          0.87021        1.45942       -0.11516
H          0.86049       -0.84919       -2.64288
H          0.26655       -2.43682       -2.14829
H          1.98493       -2.12372       -2.27016
H         -5.06755        1.77670       -0.95525
H         -5.17539       -0.72735       -0.57262
H         -3.82872        2.47253        0.08931
H         -3.68574       -1.61934       -0.44415
H         -5.01487        1.35397        0.75522
H         -4.11782       -0.84019       -1.96635
