38
../min.omega.0.chi1.270.phi1.300.log	Energy: -505592.4346284
N         -0.11338        0.64012        0.19640
C         -1.22457        2.25130       -1.36965
C         -0.15990        1.90387       -0.34561
C          0.98048        0.35659        1.15325
C          0.51892       -0.47332        2.35173
C          2.22166       -0.18025        0.44418
C          3.21462        0.71617        0.03129
C          4.34755        0.26712       -0.63253
C          4.51436       -1.09022       -0.90167
C          3.53744       -1.99002       -0.49864
C          2.40124       -1.53581        0.17127
C         -1.04468       -0.40569       -0.16178
O          0.64629        2.76418       -0.02038
C         -2.52234       -0.06457        0.13439
C         -4.86249       -0.63085       -0.05264
C         -3.20106       -2.22872       -0.89527
N         -3.47229       -0.88720       -0.40454
O         -2.81493        0.90584        0.81399
H         -1.57169        1.41152       -1.95722
H         -0.79772        2.99436       -2.02786
H         -2.07090        2.68248       -0.85317
H         -0.94385       -0.66298       -1.21025
H         -0.79525       -1.29766        0.39005
H          1.24125        1.32456        1.54336
H          3.08376        1.76493        0.22098
H          5.09929        0.97234       -0.93942
H          5.39361       -1.43732       -1.41440
H          3.65574       -3.04083       -0.69598
H          1.66611       -2.25631        0.48279
H          0.32125       -1.51500        2.12768
H         -0.37985       -0.03815        2.77421
H          1.29676       -0.45653        3.10686
H         -5.49590       -0.95258       -0.87033
H         -3.30004       -2.97118       -0.10645
H         -5.00263        0.42252        0.11775
H         -2.21405       -2.30916       -1.32123
H         -5.15060       -1.17180        0.84501
H         -3.91389       -2.46749       -1.67423
