38
../min.omega.180.chi1.270.phi1.150.log	Energy: -505588.8417765
N         -0.23790        1.15441        0.05453
C          1.46603        2.90273       -0.46720
C          0.02723        2.42456       -0.40313
C          0.72332        0.55359        1.00719
C          0.06020       -0.25672        2.12154
C          1.85383       -0.23622        0.35171
C          1.75600       -0.82913       -0.91278
C          2.82837       -1.53220       -1.44335
C          4.01896       -1.66175       -0.73036
C          4.12933       -1.07333        0.52184
C          3.05315       -0.36135        1.05188
C         -1.64895        0.84100        0.05871
O         -0.86072        3.16245       -0.80674
C         -2.02387       -0.64290       -0.15358
C         -3.74340       -2.33191       -0.26058
C         -4.42332        0.00250        0.05712
N         -3.33839       -0.96533        0.04044
O         -1.20197       -1.48392       -0.47962
H          1.77433        3.30518        0.49289
H          1.49606        3.70444       -1.19001
H          2.15644        2.12157       -0.74707
H         -2.11886        1.19033        0.97172
H         -2.09687        1.40351       -0.74393
H          1.19773        1.38315        1.51640
H          0.84110       -0.75181       -1.46135
H          2.73453       -1.98360       -2.41507
H          4.84514       -2.20836       -1.14880
H          5.04339       -1.15526        1.08263
H          3.16005        0.10372        2.01789
H         -0.34436       -1.18994        1.76368
H         -0.71813        0.31394        2.61783
H          0.81283       -0.48835        2.86556
H         -4.59301       -2.58908        0.36015
H         -4.82472        0.16822       -0.93992
H         -2.92993       -3.00522       -0.05253
H         -4.11212        0.95106        0.46194
H         -4.02886       -2.44097       -1.30371
H         -5.22039       -0.37747        0.68369
