38
../min.omega.0.chi1.150.phi1.150.log	Energy: -505581.9009056
N          1.68948        0.10253       -0.10497
C          3.62488        1.41885        0.75222
C          3.04376        0.16251        0.13029
C          1.05891       -1.12594       -0.63952
C          1.77192       -2.44058       -0.32101
C         -0.38412       -1.28901       -0.16774
C         -1.41298       -1.50982       -1.09118
C         -2.70167       -1.79849       -0.66487
C         -2.99423       -1.87081        0.69595
C         -1.98321       -1.65877        1.62292
C         -0.68716       -1.37723        1.19044
C          0.90035        1.25681        0.26140
O          3.82362       -0.72716       -0.17978
C         -0.35782        1.48484       -0.60611
C         -2.63288        2.30909       -0.81104
C         -1.55125        2.33342        1.41677
N         -1.44271        2.06326       -0.00776
O         -0.30025        1.27099       -1.80615
H          3.61825        2.23622        0.03839
H          4.65002        1.19290        1.00213
H          3.10108        1.74232        1.64384
H          0.63764        1.22251        1.30953
H          1.47125        2.15860        0.10076
H          1.02860       -1.01597       -1.71507
H         -1.20213       -1.43357       -2.14152
H         -3.47750       -1.96453       -1.39094
H         -3.99348       -2.09509        1.02400
H         -2.19203       -1.72511        2.67615
H          0.09249       -1.24158        1.91997
H          1.97297       -2.54363        0.73912
H          2.70063       -2.54638       -0.85146
H          1.10593       -3.24586       -0.61146
H         -3.45228        1.68294       -0.47347
H         -2.45057        2.91090        1.57783
H         -2.41574        2.08502       -1.84023
H         -0.72091        2.92586        1.78102
H         -2.92901        3.34931       -0.72555
H         -1.62669        1.42478        2.00252
