38
../min.omega.0.chi1.210.phi1.240.log	Energy: -505593.0525012
N          1.53578       -0.25647       -0.15039
C          3.58158        0.58583       -1.31847
C          2.88296       -0.39386       -0.39379
C          0.90613       -1.34329        0.63373
C          1.15820       -1.20368        2.13543
C         -0.56163       -1.53234        0.25762
C         -0.87484       -2.29338       -0.87498
C         -2.19138       -2.50181       -1.26108
C         -3.23183       -1.95430       -0.51253
C         -2.93738       -1.20484        0.61797
C         -1.61233       -0.99560        1.00073
C          0.74728        0.79752       -0.74761
O          3.52148       -1.31974        0.08671
C          0.07181        1.74458        0.26944
C         -1.65134        3.38855        0.72740
C         -1.53015        2.38130       -1.52458
N         -0.92340        2.54806       -0.21381
O          0.46039        1.80959        1.42440
H          3.16529        0.54953       -2.31957
H          4.61960        0.29362       -1.35912
H          3.51553        1.60540       -0.95548
H          1.37194        1.41747       -1.37071
H         -0.00488        0.36687       -1.39179
H          1.41731       -2.24026        0.31887
H         -0.07753       -2.72789       -1.45311
H         -2.40715       -3.09400       -2.13250
H         -4.25374       -2.11942       -0.80372
H         -3.73247       -0.78634        1.20922
H         -1.40660       -0.41267        1.87808
H          0.75176       -0.28884        2.53716
H          2.22465       -1.20939        2.31358
H          0.72272       -2.05197        2.65564
H         -1.83298        4.35855        0.27946
H         -2.21348        1.53740       -1.55804
H         -1.06466        3.51154        1.62076
H         -0.78421        2.26112       -2.29765
H         -2.60760        2.94259        0.98882
H         -2.08770        3.27881       -1.75508
