38
../min.omega.0.chi1.195.phi1.240.log	Energy: -505591.4563267
N          1.61472       -0.18068       -0.24440
C          3.68159        1.01214       -0.99713
C          2.98669       -0.17016       -0.34737
C          1.01463       -1.39356        0.35670
C          1.36076       -1.52653        1.84015
C         -0.48826       -1.48372        0.10236
C         -0.92430       -1.99055       -1.12769
C         -2.27375       -2.13881       -1.41547
C         -3.22835       -1.78891       -0.46207
C         -2.81286       -1.29596        0.76707
C         -1.45489       -1.14516        1.04855
C          0.80533        0.90940       -0.74029
O          3.65793       -1.12612        0.01514
C         -0.05249        1.59980        0.34372
C         -1.99895        2.92577        0.91616
C         -1.64562        2.28043       -1.44227
N         -1.12394        2.33248       -0.08610
O          0.28040        1.55229        1.51678
H          3.37997        1.12634       -2.03290
H          4.74105        0.81010       -0.96179
H          3.48064        1.94115       -0.47550
H          1.43468        1.67716       -1.15995
H          0.17103        0.55397       -1.53856
H          1.46971       -2.22872       -0.15765
H         -0.19337       -2.27980       -1.86354
H         -2.57949       -2.53577       -2.36711
H         -4.27581       -1.90989       -0.67332
H         -3.53929       -1.03260        1.51521
H         -1.16148       -0.75484        2.00249
H          1.03224       -0.66233        2.39914
H          2.42774       -1.62889        1.95968
H          0.88653       -2.41560        2.24506
H         -2.29654        3.91683        0.59403
H         -2.18406        1.35895       -1.64242
H         -1.47048        2.99771        1.85052
H         -0.86068        2.39860       -2.17652
H         -2.89180        2.32269        1.05789
H         -2.32983        3.10783       -1.57119
