38
../min.omega.180.chi1.240.phi1.330.log	Energy: -505590.5486914
N          0.19086        0.86302        0.00682
C          0.40286        2.72203        1.66490
C          0.94754        1.48671        0.97194
C         -1.15665        1.32176       -0.40093
C         -1.14279        1.91685       -1.80940
C         -2.19719        0.23156       -0.15546
C         -2.32826       -0.30190        1.13229
C         -3.27847       -1.27326        1.41403
C         -4.12414       -1.73712        0.40789
C         -4.00505       -1.21824       -0.87391
C         -3.04880       -0.24166       -1.15301
C          0.69758       -0.31444       -0.66110
O          2.02568        1.02869        1.32361
C          2.23586       -0.37536       -0.79361
C          4.34843       -1.44294       -0.46033
C          2.53593       -1.97332        1.08056
N          2.91516       -1.40435       -0.20260
O          2.76616        0.39191       -1.58054
H          0.15545        3.51111        0.96459
H          1.17425        3.07092        2.33416
H         -0.48470        2.48782        2.24213
H          0.29603       -1.20741       -0.20375
H          0.35651       -0.30243       -1.68479
H         -1.41398        2.12953        0.26491
H         -1.67765        0.03983        1.91787
H         -3.36022       -1.66668        2.41142
H         -4.86086       -2.48986        0.62309
H         -4.64985       -1.56836       -1.65991
H         -2.98095        0.14157       -2.15325
H         -0.93132        1.18490       -2.57848
H         -0.37816        2.68205       -1.86563
H         -2.10074        2.37293       -2.03502
H          4.87943       -0.71521        0.14695
H          2.83188       -3.01586        1.10390
H          4.53877       -1.23028       -1.49917
H          1.47225       -1.92198        1.24117
H          4.71468       -2.43459       -0.22312
H          3.02124       -1.44736        1.89554
