38
../min.omega.180.chi1.75.phi1.330.log	Energy: -505589.0102522
N         -0.22568        0.72087       -0.24511
C          0.43413        1.66979        1.98248
C         -0.57103        1.01340        1.05419
C          1.08001        1.01981       -0.87623
C          1.43366        2.50741       -0.86643
C          2.18922        0.07513       -0.41935
C          3.53641        0.44523       -0.50962
C          4.54566       -0.43895       -0.15544
C          4.23067       -1.71874        0.29796
C          2.89824       -2.09648        0.38943
C          1.88358       -1.20766        0.03377
C         -1.19955        0.09562       -1.11109
O         -1.70958        0.81968        1.45670
C         -2.22023       -0.81633       -0.39405
C         -4.44820       -1.50104        0.13726
C         -4.07248        0.82960       -0.46975
N         -3.55437       -0.52890       -0.47773
O         -1.80573       -1.87203        0.05634
H          1.45611        1.37165        1.80588
H          0.14684        1.40697        2.99018
H          0.35167        2.74573        1.87816
H         -1.68569        0.83587       -1.73461
H         -0.67990       -0.58716       -1.76828
H          0.90648        0.78816       -1.91976
H          3.81003        1.42451       -0.85503
H          5.57324       -0.13042       -0.22964
H          5.01182       -2.40353        0.57512
H          2.63696       -3.07923        0.73848
H          0.86079       -1.52402        0.11936
H          1.86088        2.84452        0.06742
H          0.54424        3.09250       -1.07139
H          2.15059        2.72222       -1.65026
H         -4.46932       -1.39051        1.21772
H         -5.00083        0.85445       -1.02859
H         -4.12244       -2.49977       -0.10171
H         -3.38526        1.52120       -0.92726
H         -5.44671       -1.34571       -0.25306
H         -4.25717        1.16690        0.54415
