38
../min.omega.180.chi1.300.phi1.300.log	Energy: -505591.8294458
N          0.21867        0.23036        0.18639
C         -0.69315       -1.11476        2.10427
C          0.35431       -0.83901        1.04140
C         -0.95580        1.13187        0.20636
C         -0.80751        2.33996       -0.71919
C         -2.27515        0.41280       -0.06518
C         -3.42322        0.77755        0.64822
C         -4.64764        0.18241        0.37911
C         -4.74944       -0.79315       -0.61112
C         -3.61866       -1.16175       -1.32659
C         -2.38912       -0.56027       -1.05736
C          1.29893        0.35461       -0.76592
O          1.31017       -1.59282        0.92326
C          2.65116        0.53932       -0.04141
C          5.00470        0.09343        0.18416
C          3.67709       -1.24259       -1.41705
N          3.75978       -0.07602       -0.55315
O          2.70306        1.32237        0.89310
H         -1.07013       -0.21712        2.57485
H         -0.22768       -1.74562        2.84719
H         -1.52837       -1.64540        1.66526
H          1.30883       -0.50161       -1.42230
H          1.16568        1.23407       -1.37139
H         -1.01613        1.54041        1.20875
H         -3.35467        1.52446        1.42069
H         -5.51747        0.47157        0.94134
H         -5.69664       -1.25846       -0.81618
H         -3.68614       -1.91441       -2.09166
H         -1.51979       -0.86099       -1.61417
H         -0.79962        2.05912       -1.76622
H          0.08976        2.90159       -0.48746
H         -1.66139        2.98868       -0.56459
H          5.12179       -0.67350        0.94521
H          4.68405       -1.56244       -1.64585
H          5.00817        1.05800        0.66179
H          3.19688       -1.00748       -2.35886
H          5.83681        0.03175       -0.50675
H          3.15198       -2.06183       -0.94139
