38
../min.omega.0.chi1.60.phi1.60.log	Energy: -505590.2710806
N          0.16489       -0.18853       -0.00490
C          1.11566       -1.28373        2.03898
C          0.03064       -1.13022        0.98918
C         -0.87983       -0.09149       -1.04972
C         -0.82565       -1.29044       -1.99719
C         -2.26251        0.22866       -0.48651
C         -2.50980        1.53472       -0.04709
C         -3.75406        1.91195        0.43801
C         -4.79136        0.98214        0.48372
C         -4.56316       -0.31543        0.04707
C         -3.30820       -0.69210       -0.43172
C          1.31238        0.68458       -0.10612
O         -0.93210       -1.88391        1.01963
C          2.66087       -0.04952       -0.28010
C          5.09244        0.04994       -0.20431
C          3.80262        2.10718        0.24380
N          3.79269        0.70463       -0.13936
O          2.69256       -1.23545       -0.56596
H          1.83291       -2.00970        1.68232
H          0.64137       -1.66477        2.93194
H          1.64075       -0.36729        2.27883
H          1.18410        1.32198       -0.96957
H          1.37061        1.34252        0.75388
H         -0.60286        0.77641       -1.63308
H         -1.71904        2.26540       -0.08826
H         -3.91792        2.92204        0.76956
H         -5.75966        1.26843        0.85387
H         -5.35441       -1.04285        0.08367
H         -3.14798       -1.70650       -0.73779
H         -1.04915       -2.21370       -1.48400
H          0.17196       -1.37301       -2.41327
H         -1.53141       -1.15867       -2.81144
H          5.72046        0.54694       -0.93579
H          3.77870        2.23919        1.32258
H          4.95653       -0.97805       -0.49045
H          2.97666        2.64904       -0.19296
H          5.58757        0.09162        0.76165
H          4.71385        2.55570       -0.12914
