38
../min.omega.0.chi1.150.phi1.120.log	Energy: -505587.4148671
N          1.56662       -0.03945        0.07793
C          3.49608        1.16525        1.10381
C          2.92784        0.03700        0.26294
C          0.92996       -1.04759       -0.80003
C          1.69880       -2.35246       -1.01059
C         -0.46550       -1.40258       -0.29192
C         -1.58892       -1.15426       -1.08963
C         -2.85762       -1.53055       -0.67178
C         -3.03298       -2.16031        0.55920
C         -1.92805       -2.41226        1.36049
C         -0.65315       -2.03950        0.93420
C          0.69329        0.94359        0.67812
O          3.71764       -0.75192       -0.23674
C         -0.14035        1.73100       -0.35756
C         -2.09480        3.07859       -0.85001
C         -1.77296        2.23319        1.44918
N         -1.22813        2.41271        0.11315
O          0.21132        1.78389       -1.52490
H          3.28424        2.13315        0.66299
H          4.56475        1.01931        1.12829
H          3.11774        1.15931        2.12021
H          0.03713        0.46944        1.39046
H          1.26284        1.67798        1.22135
H          0.80861       -0.57993       -1.76616
H         -1.46257       -0.65872       -2.03536
H         -3.70722       -1.33534       -1.30177
H         -4.01604       -2.45215        0.88279
H         -2.04997       -2.90225        2.31017
H          0.19501       -2.24591        1.56318
H          1.98118       -2.81730       -0.07434
H          2.59064       -2.21041       -1.59466
H          1.03664       -3.03180       -1.53764
H         -2.97578        2.47783       -1.06086
H         -2.45106        3.05141        1.64983
H         -1.55131        3.23931       -1.76453
H         -0.99873        2.26783        2.20296
H         -2.41397        4.03321       -0.44843
H         -2.32313        1.30184        1.54848
