38
../min.omega.0.chi1.120.phi1.60.log	Energy: -505589.5191630
N          0.12514        0.79175       -0.11770
C          1.88959        2.11845       -1.29851
C          0.56000        2.01458       -0.57442
C         -0.91632        0.63919        0.92373
C         -1.37700        1.89858        1.65847
C         -2.10352       -0.14449        0.36882
C         -2.60996       -1.25285        1.05810
C         -3.70870       -1.94982        0.57559
C         -4.32284       -1.55096       -0.61033
C         -3.83009       -0.45303       -1.30182
C         -2.72579        0.24729       -0.81589
C          0.90182       -0.41257       -0.30669
O         -0.10916        3.03047       -0.44781
C          2.30499       -0.37849        0.33948
C          4.53883       -1.33735        0.49406
C          2.88864       -2.39788       -1.00576
N          3.17480       -1.37168       -0.01628
O          2.58810        0.48377        1.15526
H          2.66200        2.31909       -0.56891
H          1.81506        2.95763       -1.97449
H          2.16857        1.23526       -1.85877
H          0.35141       -1.24219        0.11376
H          0.99762       -0.62867       -1.36344
H         -0.45193        0.02230        1.68560
H         -2.14273       -1.56685        1.97626
H         -4.08426       -2.79991        1.11701
H         -5.17334       -2.09124       -0.98593
H         -4.30015       -0.13668       -2.21601
H         -2.35013        1.09917       -1.35366
H         -1.95983        2.55797        1.03740
H         -0.53509        2.45104        2.05287
H         -1.99115        1.56619        2.49032
H          4.77496       -2.27616        0.98353
H          3.14345       -2.07834       -2.01312
H          4.63136       -0.53278        1.20216
H          1.85123       -2.69649       -0.98574
H          5.24359       -1.18459       -0.31826
H          3.48044       -3.27298       -0.77116
