38
../min.omega.0.chi1.135.phi1.270.log	Energy: -505588.7945828
N         -1.56035       -0.17657        0.37330
C         -3.46788        1.32022       -0.15918
C         -2.82774       -0.05564       -0.14834
C         -0.90648       -1.45914        0.71964
C         -1.62036       -2.74759        0.30928
C          0.53506       -1.49362        0.21736
C          1.57747       -1.79820        1.10092
C          2.88684       -1.90008        0.65262
C          3.17914       -1.69574       -0.69477
C          2.15422       -1.39229       -1.58014
C          0.83785       -1.29394       -1.12901
C         -0.86631        0.97957        0.89384
O         -3.46182       -1.00346       -0.59040
C         -0.02166        1.71330       -0.17189
C          1.91323        3.05410       -0.74805
C          1.60453        2.34929        1.59996
N          1.05708        2.43647        0.25581
O         -0.38117        1.69988       -1.33796
H         -3.68464        1.65371        0.85132
H         -4.39858        1.22547       -0.69717
H         -2.84114        2.05418       -0.64624
H         -1.55192        1.70792        1.30541
H         -0.24662        0.65213        1.71302
H         -0.85552       -1.47429        1.80659
H          1.35980       -1.96360        2.14267
H          3.67419       -2.13830        1.34561
H          4.19294       -1.77323       -1.04499
H          2.37047       -1.23032       -2.62086
H          0.05506       -1.03834       -1.81794
H         -1.71846       -2.83827       -0.76161
H         -2.60356       -2.82419        0.74619
H         -1.00983       -3.56876        0.67236
H          2.21593        4.03785       -0.40847
H          2.15187        1.42570        1.76365
H          1.36751        3.14629       -1.67057
H          0.83241        2.44284        2.35134
H          2.80276        2.45460       -0.92063
H          2.28673        3.17646        1.74002
