38
../min.omega.0.chi1.330.phi1.120.log	Energy: -505582.4828121
N         -0.23800        0.90071        0.27901
C         -0.42862        3.25816       -0.51675
C          0.39927        2.03479       -0.16908
C          0.52277       -0.21792        0.88100
C         -0.18291       -1.57390        0.84304
C          1.95076       -0.41035        0.37571
C          3.01942       -0.39123        1.27995
C          4.30681       -0.69270        0.85859
C          4.55033       -1.02366       -0.47325
C          3.49518       -1.05399       -1.37445
C          2.19919       -0.75794       -0.95159
C         -1.67692        0.88087        0.41470
O          1.61691        2.14429       -0.20383
C         -2.38132       -0.19018       -0.44799
C         -4.29018       -1.66161       -0.78464
C         -4.24727       -0.19816        1.20959
N         -3.60770       -0.62248       -0.02529
O         -1.87824       -0.56046       -1.49631
H         -1.16259        3.07041       -1.29219
H          0.26529        4.00685       -0.86562
H         -0.94128        3.63978        0.36028
H         -1.92947        0.73995        1.46001
H         -2.10252        1.82531        0.12464
H          0.61556        0.03674        1.93630
H          2.84407       -0.12742        2.30833
H          5.11884       -0.66696        1.56365
H          5.54920       -1.25359       -0.79884
H          3.67254       -1.30785       -2.40454
H          1.38694       -0.77835       -1.65658
H         -0.29519       -1.95084       -0.16148
H         -1.15633       -1.55593        1.32263
H          0.43107       -2.26825        1.40412
H         -4.41049       -2.55467       -0.17868
H         -5.30204       -0.42516        1.13785
H         -3.70874       -1.89938       -1.65777
H         -4.15935        0.86849        1.36400
H         -5.27213       -1.31646       -1.09067
H         -3.85187       -0.71390        2.08049
