38
../min.omega.0.chi1.225.phi1.180.log	Energy: -505588.2653432
N          1.61325       -0.14567       -0.06380
C          3.90579        0.47168       -0.82907
C          2.85508       -0.56639       -0.48075
C          0.85032       -1.13561        0.73021
C          1.09152       -0.96085        2.23001
C         -0.61187       -1.25664        0.30729
C         -0.88576       -1.79940       -0.95383
C         -2.18993       -2.01792       -1.37478
C         -3.25525       -1.70218       -0.53332
C         -2.99814       -1.17022        0.72260
C         -1.68601       -0.94921        1.14155
C          1.38834        1.27993        0.01604
O          3.15135       -1.75123       -0.54587
C          0.00029        1.77351        0.48216
C         -2.17088        2.71851       -0.05166
C         -0.86900        1.67710       -1.86174
N         -0.91643        2.11057       -0.47470
O         -0.18923        1.98415        1.66912
H          3.60564        1.10322       -1.65763
H          4.80214       -0.06315       -1.10222
H          4.11467        1.11336        0.01933
H          2.04367        1.73780        0.74828
H          1.60889        1.73126       -0.93855
H          1.30220       -2.07027        0.45283
H         -0.06553       -2.06360       -1.59873
H         -2.37573       -2.44406       -2.34472
H         -4.26743       -1.87820       -0.85123
H         -3.81205       -0.92948        1.38320
H         -1.51276       -0.52856        2.11295
H          0.73507       -0.01449        2.60968
H          2.15681       -1.03079        2.42510
H          0.60588       -1.76168        2.77777
H         -2.48449        3.43246       -0.80485
H         -1.77551        1.13548       -2.10298
H         -2.02746        3.22691        0.88665
H         -0.04147        1.01095       -2.03904
H         -2.94621        1.96837        0.06462
H         -0.78792        2.53297       -2.52527
