38
../min.omega.0.chi1.150.phi1.180.log	Energy: -505579.0586849
N          1.59793       -0.03619        0.06607
C          3.91101        0.95082        0.12476
C          2.94021       -0.19901        0.32057
C          0.87226       -1.11292       -0.64564
C          1.45730       -2.52416       -0.58034
C         -0.59780       -1.18260       -0.23873
C         -1.60802       -1.22601       -1.20703
C         -2.93106       -1.42776       -0.84007
C         -3.27160       -1.59309        0.50132
C         -2.27836       -1.55628        1.47011
C         -0.94818       -1.35817        1.09944
C          1.26787        1.29713       -0.38408
O          3.39431       -1.25246        0.74469
C         -0.19908        1.65205       -0.71525
C         -2.34834        2.56675       -0.02424
C         -0.68464        2.02434        1.70941
N         -1.00338        2.10573        0.29314
O         -0.54287        1.65038       -1.88613
H          3.87732        1.35350       -0.88010
H          4.89559        0.55565        0.32042
H          3.72246        1.76526        0.81524
H          1.62138        2.01383        0.34033
H          1.75242        1.51707       -1.32820
H          0.88309       -0.82761       -1.69553
H         -1.35871       -1.07928       -2.24165
H         -3.69526       -1.45314       -1.59618
H         -4.29754       -1.75160        0.78237
H         -2.52915       -1.69318        2.50721
H         -0.18022       -1.34726        1.85249
H          1.50033       -2.90596        0.42825
H          2.44651       -2.58349       -1.00777
H          0.79490       -3.15618       -1.16226
H         -3.08530        1.82831        0.27318
H         -0.55129        3.01745        2.12943
H         -2.42562        2.73962       -1.08370
H          0.20713        1.44418        1.87919
H         -2.54455        3.49140        0.50872
H         -1.49625        1.53489        2.23407
