38
../min.omega.0.chi1.165.phi1.210.log	Energy: -505576.2400737
N         -1.69412        0.01366       -0.10142
C         -3.84028        1.30289        0.10644
C         -3.06996        0.01338       -0.10962
C         -1.01760       -1.12859        0.55439
C         -1.62830       -2.51037        0.31804
C          0.46625       -1.24498        0.21359
C          1.40070       -1.37619        1.24783
C          2.73637       -1.63784        0.97707
C          3.16380       -1.77721       -0.34222
C          2.24652       -1.65494       -1.37666
C          0.90322       -1.39806       -1.10166
C         -1.09723        1.31065        0.12403
O         -3.72997       -1.00174       -0.28214
C          0.28238        1.57281       -0.52058
C          2.49677        2.53461       -0.45130
C          1.41138        2.05817        1.68655
N          1.28831        2.10336        0.23850
O          0.37041        1.48248       -1.73435
H         -3.51593        1.83980        0.99010
H         -4.87638        1.02283        0.21597
H         -3.75549        1.97088       -0.74404
H         -1.69068        2.05783       -0.37132
H         -1.09419        1.55640        1.18028
H         -1.06871       -0.93829        1.62786
H          1.07717       -1.28738        2.27098
H          3.43781       -1.73984        1.78613
H          4.19776       -1.98156       -0.55604
H          2.56689       -1.75792       -2.39759
H          0.20585       -1.28849       -1.90984
H         -1.73151       -2.71968       -0.73806
H         -2.59234       -2.62930        0.78045
H         -0.94559       -3.23674        0.74494
H          2.90548        3.39590        0.06529
H          2.33506        1.55850        1.95501
H          2.25926        2.80277       -1.46613
H          0.60507        1.51442        2.14649
H          3.24147        1.74506       -0.45921
H          1.43207        3.06373        2.09570
