38
../min.omega.0.chi1.180.phi1.300.log	Energy: -505589.8472168
N         -0.32479        1.24801       -0.50047
C         -2.74035        1.92061       -0.73967
C         -1.28001        2.23794       -0.47584
C          0.95614        1.57871        0.16461
C          0.76868        2.03465        1.61205
C          1.96048        0.43077        0.09361
C          2.84603        0.37142       -0.98914
C          3.79032       -0.64002       -1.09447
C          3.87014       -1.62351       -0.11007
C          2.99951       -1.57822        0.96992
C          2.05358       -0.55804        1.07232
C         -0.69010       -0.12248       -0.77910
O         -0.97004        3.39943       -0.25066
C         -1.69687       -0.74767        0.21243
C         -3.17456       -2.56277        0.81231
C         -1.79073       -2.79585       -1.20060
N         -2.29661       -1.91984       -0.15621
O         -1.94348       -0.20217        1.27581
H         -2.91211        1.08529       -1.40543
H         -3.18539        2.80999       -1.16174
H         -3.21424        1.70517        0.20814
H         -1.10874       -0.17686       -1.77653
H          0.19499       -0.73347       -0.79368
H          1.37340        2.40629       -0.39085
H          2.79356        1.12904       -1.75154
H          4.46352       -0.65974       -1.93286
H          4.60295       -2.40684       -0.18457
H          3.05396       -2.32866        1.73839
H          1.39099       -0.54610        1.91719
H          0.19842        1.31183        2.18176
H          0.24799        2.97704        1.65046
H          1.73972        2.16111        2.07978
H         -3.93416       -3.12197        0.27961
H         -1.09520       -3.53071       -0.80210
H         -3.64408       -1.81395        1.42650
H         -1.29430       -2.24424       -1.98209
H         -2.62434       -3.24674        1.45338
H         -2.62252       -3.32490       -1.64854
