38
../min.omega.0.chi1.195.phi1.300.log	Energy: -505592.4726674
N         -0.25954        1.18496       -0.40214
C         -2.55201        2.03869       -0.98908
C         -1.11634        2.25183       -0.54598
C          0.96913        1.45907        0.37743
C          0.65050        1.72861        1.84846
C          2.01748        0.36595        0.18364
C          2.73139        0.33412       -1.02026
C          3.70474       -0.62634       -1.25672
C          3.99086       -1.58246       -0.28379
C          3.29524       -1.56105        0.91708
C          2.31699       -0.59407        1.14952
C         -0.68421       -0.17167       -0.66387
O         -0.74372        3.38964       -0.29623
C         -1.85590       -0.67288        0.20992
C         -3.49230       -2.37961        0.71050
C         -1.84487       -2.81818       -1.05507
N         -2.45124       -1.84737       -0.15846
O         -2.23213       -0.03389        1.17909
H         -2.70709        1.18065       -1.62998
H         -2.86106        2.93375       -1.50970
H         -3.15878        1.91807       -0.10262
H         -0.96159       -0.26660       -1.70662
H          0.15190       -0.83392       -0.51307
H          1.37503        2.36644       -0.04129
H          2.51898        1.07255       -1.77389
H          4.24261       -0.62631       -2.18799
H          4.74770       -2.32568       -0.45975
H          3.51132       -2.28945        1.67826
H          1.79830       -0.59779        2.08917
H          0.13470        0.89489        2.30787
H          0.01435        2.59730        1.92855
H          1.56519        1.92544        2.39887
H         -4.19827       -2.94016        0.10971
H         -1.24218       -3.54213       -0.51159
H         -4.00206       -1.56842        1.20082
H         -1.22394       -2.34563       -1.79858
H         -3.07728       -3.04075        1.46693
H         -2.62972       -3.35347       -1.57447
