38
../min.omega.180.chi1.180.phi1.300.log	Energy: -505591.7788183
N         -0.22379        1.09009       -0.45038
C         -1.08948        3.43165       -0.10991
C         -1.29106        1.95734       -0.40771
C          1.03941        1.38459        0.26382
C          0.84495        1.69450        1.74849
C          2.07876        0.28238        0.07311
C          2.97326        0.37409       -0.99998
C          3.95370       -0.58694       -1.20240
C          4.05961       -1.66735       -0.32825
C          3.17728       -1.77235        0.73800
C          2.19346       -0.80409        0.93954
C         -0.62987       -0.26468       -0.74871
O         -2.41609        1.56846       -0.68868
C         -1.61205       -0.84350        0.29429
C         -3.54809       -2.16579        0.85826
C         -3.06957       -1.68390       -1.52014
N         -2.61062       -1.67013       -0.14057
O         -1.40738       -0.63607        1.47930
H         -1.50660        3.65139        0.86515
H         -1.66853        3.97750       -0.84286
H         -0.06366        3.76594       -0.14168
H         -1.06159       -0.27030       -1.73477
H          0.22992       -0.91227       -0.76497
H          1.45667        2.26382       -0.21019
H          2.89953        1.20611       -1.67861
H          4.63275       -0.49391       -2.03097
H          4.81955       -2.41290       -0.47903
H          3.24763       -2.60341        1.41666
H          1.50941       -0.91561        1.75913
H          0.31695        0.89714        2.24857
H          0.27646        2.60305        1.89393
H          1.81185        1.83908        2.21899
H         -4.39874       -1.49836        0.96777
H         -3.87596       -2.39958       -1.59846
H         -3.04809       -2.24839        1.80775
H         -2.28854       -2.00789       -2.19630
H         -3.90620       -3.14228        0.55526
H         -3.43595       -0.71372       -1.83404
