38
../min.omega.180.chi1.330.phi1.150.log	Energy: -502171.3220094
N         -0.44244        1.06708        0.46775
C          1.40157        1.66053        1.03060
C          0.44760        1.93867       -0.11635
C          0.59212        0.06095        0.79924
C          0.24752       -0.75281        2.04710
C          1.91167       -0.31411        0.12870
C          2.12413       -0.19364       -1.24985
C          3.35336       -0.49680       -1.81808
C          4.39682       -0.98127       -1.03123
C          4.17259       -1.16507        0.32610
C          2.94075       -0.85167        0.90090
C         -1.68692        0.89575       -0.24725
O          0.37842        2.59607       -1.14537
C         -2.36693       -0.48397       -0.10053
C         -4.33332       -1.86994       -0.23541
C         -4.51821        0.47269       -0.92963
N         -3.72267       -0.54769       -0.26632
O         -1.69906       -1.47923        0.12874
H         -1.27113        2.61982        4.23830
H          1.03098        2.11953        1.93581
H          2.46260        1.77574        0.90582
H         -2.34112        1.67707        0.11011
H         -1.54316        1.06197       -1.31150
H         -1.40927        1.92819        4.03899
H          1.33080        0.14991       -1.88589
H          3.48860       -0.37204       -2.87769
H          5.34832       -1.22275       -1.46874
H          4.95150       -1.56081        0.95375
H          2.81642       -1.00532        1.95471
H          0.22265       -1.80870        1.81640
H         -0.72484       -0.46374        2.41583
H          0.96449       -0.58616        2.84051
H         -5.36042       -1.77058        0.09354
H         -4.63116        0.25790       -1.98955
H         -3.79680       -2.50197        0.45121
H         -4.08570        1.45365       -0.82533
H         -4.32462       -2.33492       -1.21764
H         -5.50374        0.49686       -0.48158
