38
../min.omega.180.chi1.195.phi1.60.log	Energy: -505591.7153639
N         -0.20636        0.97322       -0.15552
C         -0.83123        3.11643       -1.26650
C         -1.19572        1.87483       -0.47374
C          1.19503        1.41875        0.01801
C          1.34697        2.28571        1.26837
C          2.15151        0.22870       -0.00259
C          2.07222       -0.66695       -1.07571
C          2.94962       -1.73715       -1.17891
C          3.93323       -1.93316       -0.21106
C          4.02172       -1.05201        0.85766
C          3.13727        0.02176        0.96162
C         -0.68137       -0.16408        0.59961
O         -2.35889        1.66638       -0.15839
C         -1.75007       -0.93800       -0.20445
C         -3.81916       -2.15801       -0.32938
C         -3.25784       -0.96017        1.75857
N         -2.81598       -1.46665        0.46928
O         -1.55106       -1.15297       -1.38908
H         -0.22828        3.80643       -0.68943
H         -1.75367        3.60480       -1.54215
H         -0.28117        2.85268       -2.16253
H          0.13164       -0.85516        0.75477
H         -1.05159        0.14527        1.56607
H          1.43267        2.02430       -0.84620
H          1.29552       -0.54256       -1.80828
H          2.86386       -2.41652       -2.00768
H          4.61449       -2.76127       -0.28939
H          4.77375       -1.19278        1.61333
H          3.23507        0.68370        1.80004
H          1.16713        1.71247        2.17141
H          0.63945        3.10542        1.25750
H          2.34126        2.71390        1.32953
H         -4.29516       -2.91672        0.27992
H         -3.50830        0.09310        1.71610
H         -3.34313       -2.62569       -1.17382
H         -2.51216       -1.12069        2.52711
H         -4.57870       -1.47106       -0.69326
H         -4.13959       -1.51266        2.05151
