38
../min.omega.180.chi1.75.phi1.240.log	Energy: -505592.2289917
N          0.26511        0.92601       -0.04244
C         -1.38426        2.21688       -1.40095
C          0.03649        1.93737       -0.94682
C         -0.71029        0.53460        1.00058
C         -1.03702        1.69146        1.94559
C         -1.90269       -0.26102        0.47460
C         -1.70789       -1.25522       -0.49166
C         -2.77429       -2.02112       -0.94111
C         -4.05788       -1.81747       -0.43756
C         -4.26095       -0.83699        0.52360
C         -3.18984       -0.06481        0.97362
C          1.65014        0.73926        0.32651
O          0.95467        2.54717       -1.47686
C          2.19699       -0.66630       -0.00954
C          4.10550       -2.15313       -0.13650
C          4.46225        0.18239        0.56027
N          3.51737       -0.88417        0.27097
O          1.48023       -1.54294       -0.46442
H         -1.66469        1.45282       -2.11757
H         -1.38169        3.17778       -1.89390
H         -2.12039        2.20531       -0.61407
H          2.23965        1.47698       -0.18922
H          1.78401        0.90373        1.39168
H         -0.15539       -0.18276        1.59247
H         -0.72184       -1.42652       -0.87462
H         -2.60272       -2.78009       -1.68358
H         -4.88113       -2.41339       -0.78906
H         -5.24435       -0.66494        0.92368
H         -3.38143        0.68923        1.71364
H         -1.67115        2.44502        1.49514
H         -0.11813        2.17645        2.25694
H         -1.53137        1.32792        2.83901
H          4.84222       -2.45591        0.59818
H          5.30541       -0.24145        1.08969
H          4.59418       -2.06825       -1.10377
H          4.02808        0.93840        1.19635
H          3.33392       -2.90037       -0.19976
H          4.83280        0.65797       -0.34446
