38
../min.omega.0.chi1.345.phi1.210.log	Energy: -505579.1670094
N          0.24142        0.76170       -0.32907
C          0.17829        3.24222       -0.06857
C         -0.48732        1.92502       -0.42192
C         -0.42891       -0.55854       -0.31847
C          0.15764       -1.50329        0.73106
C         -1.93341       -0.54373       -0.05814
C         -2.79218       -1.10462       -1.01101
C         -4.15087       -1.23381       -0.75985
C         -4.68468       -0.80546        0.45432
C         -3.84336       -0.25159        1.40922
C         -2.47674       -0.12936        1.15732
C          1.61686        0.85785        0.10480
O         -1.63583        1.95762       -0.84110
C          2.53991       -0.23630       -0.47691
C          4.59173       -1.52904       -0.27977
C          4.06234        0.14730        1.46351
N          3.69326       -0.49278        0.21126
O          2.27027       -0.78197       -1.53459
H          0.67773        3.22641        0.89348
H         -0.60194        3.98753       -0.05426
H          0.90426        3.52312       -0.82489
H          2.04627        1.78475       -0.24333
H          1.68853        0.85714        1.18630
H         -0.26848       -0.99946       -1.29050
H         -2.39344       -1.43012       -1.95542
H         -4.79287       -1.66346       -1.50828
H         -5.73792       -0.90255        0.64827
H         -4.24197        0.08542        2.34982
H         -1.84526        0.30838        1.91077
H          0.09045       -1.08281        1.72911
H          1.17995       -1.79366        0.54503
H         -0.42659       -2.41477        0.72750
H          5.57399       -1.11160       -0.47471
H          3.52628       -0.26547        2.31337
H          4.19313       -1.93879       -1.19091
H          3.90304        1.21694        1.43352
H          4.69170       -2.32029        0.45697
H          5.11900       -0.01439        1.62491
