38
../min.omega.0.chi1.120.phi1.150.log	Energy: -505585.7001190
N         -1.55328       -0.35013       -0.09062
C         -3.27441       -1.25141        1.45917
C         -2.85721       -0.30771        0.34639
C         -0.95806        0.62110       -1.03663
C         -1.89202        1.64725       -1.67916
C          0.22191        1.33690       -0.38334
C          1.46729        1.36913       -1.02213
C          2.53503        2.06018       -0.46698
C          2.38147        2.73079        0.74518
C          1.15262        2.70551        1.38994
C          0.07957        2.01425        0.82712
C         -0.64534       -1.28872        0.52903
O         -3.69640        0.46530       -0.09413
C          0.48435       -1.81026       -0.38715
C          2.75204       -2.62241       -0.63491
C          2.05544       -1.67450        1.54415
N          1.68242       -2.09984        0.20475
O          0.26007       -2.05310       -1.56184
H         -3.29759       -2.28167        1.11956
H         -4.27276       -0.96340        1.74998
H         -2.61887       -1.19381        2.32046
H         -0.23140       -0.86996        1.43464
H         -1.17316       -2.19066        0.80119
H         -0.56460        0.02864       -1.84550
H          1.59507        0.84696       -1.95416
H          3.48329        2.07682       -0.97430
H          3.20880        3.26618        1.17553
H          1.02191        3.22465        2.32282
H         -0.87143        2.00980        1.33060
H         -2.32004        2.33634       -0.96761
H         -2.69626        1.17300       -2.21987
H         -1.28480        2.21122       -2.38118
H          3.47039       -1.84389       -0.87674
H          3.05150       -2.04222        1.74462
H          2.33225       -3.00850       -1.54699
H          1.40072       -2.09349        2.29858
H          3.26652       -3.41921       -0.11073
H          2.07108       -0.59533        1.64393
