38
../min.omega.180.chi1.105.phi1.300.log	Energy: -505589.5607210
N         -0.21118        0.86049       -0.18688
C          0.08392        2.39924        1.78764
C         -0.77586        1.59339        0.83146
C          1.12075        1.05341       -0.80433
C          1.67216        2.47878       -0.75544
C          2.13919        0.00419       -0.36453
C          3.38595       -0.04374       -0.99963
C          4.34135       -0.98058       -0.63173
C          4.06717       -1.89616        0.38275
C          2.82826       -1.86656        1.00778
C          1.86650       -0.92641        0.63741
C         -1.17989        0.15732       -0.99711
O         -1.99015        1.59057        0.97749
C         -2.01012       -0.84010       -0.15839
C         -4.09081       -1.93872        0.34527
C         -4.09586        0.00321       -1.18669
N         -3.32923       -1.00789       -0.47676
O         -1.44727       -1.52581        0.67955
H          1.05797        1.96139        1.95223
H         -0.45517        2.44430        2.72306
H          0.20203        3.40991        1.41789
H         -1.80203        0.85441       -1.53768
H         -0.64838       -0.45462       -1.71407
H          0.93767        0.87674       -1.85747
H          3.61598        0.64640       -1.79251
H          5.29206       -0.99882       -1.13432
H          4.80512       -2.62353        0.67021
H          2.59673       -2.57773        1.78033
H          0.90053       -0.94764        1.10072
H          2.12833        2.73286        0.18927
H          0.89358        3.19947       -0.98168
H          2.43638        2.58321       -1.51538
H         -4.51353       -1.44468        1.21597
H         -5.12125       -0.33325       -1.24621
H         -3.44484       -2.73269        0.67823
H         -3.74366        0.13191       -2.20286
H         -4.89578       -2.35620       -0.24711
H         -4.07575        0.95856       -0.67614
