38
../min.omega.0.chi1.150.phi1.240.log	Energy: -505583.1764830
N         -1.64200       -0.00042        0.13998
C         -3.73261        1.36307       -0.02857
C         -2.98586        0.04768       -0.15109
C         -1.00644       -1.23109        0.66343
C         -1.69715       -2.56316        0.36911
C          0.45775       -1.35205        0.24748
C          1.44344       -1.53622        1.22449
C          2.76749       -1.75672        0.87228
C          3.13103       -1.79904       -0.47260
C          2.16276       -1.62029       -1.45082
C          0.83168       -1.40214       -1.09489
C         -0.96622        1.20701        0.55802
O         -3.62369       -0.93575       -0.50023
C          0.19246        1.62087       -0.37673
C          2.41180        2.54918       -0.69464
C          1.55353        2.28917        1.60780
N          1.29974        2.19940        0.17896
O          0.03228        1.52851       -1.58295
H         -3.70456        1.74446        0.98679
H         -4.75671        1.16013       -0.30039
H         -3.33745        2.12267       -0.69338
H         -1.63181        2.05203        0.55365
H         -0.62623        1.08356        1.57813
H         -1.00520       -1.11937        1.74744
H          1.16903       -1.51849        2.26578
H          3.50990       -1.89972        1.63733
H          4.15588       -1.97103       -0.74951
H          2.43455       -1.64814       -2.49064
H          0.09427       -1.24284       -1.85821
H         -1.79057       -2.74590       -0.69120
H         -2.67838       -2.62677        0.80988
H         -1.07087       -3.33819        0.79919
H          2.72940        3.56709       -0.49567
H          1.83112        1.33309        2.03868
H          2.09394        2.46805       -1.71886
H          0.70284        2.68878        2.14362
H          3.25149        1.88163       -0.52732
H          2.37459        2.97650        1.75801
