38
../min.omega.180.chi1.75.phi1.210.log	Energy: -502002.6877327
N         -1.84276       -0.88635        0.40493
C         -4.05706       -1.44741        0.55176
C         -3.08556       -0.29799        0.35703
C         -0.50188       -1.51442        0.41256
C         -0.37176       -2.02345       -1.02343
C          1.00311       -1.27694        0.31211
C          1.81202       -0.97088        1.41304
C          3.19283       -0.83259        1.40814
C          3.89449       -1.02620        0.21951
C          3.14049       -1.34220       -0.90212
C          1.75062       -1.45082       -0.85205
C         -1.45067        0.48895        0.19485
O         -3.60984        0.32093       -0.55835
C         -0.32263        1.32080       -0.45563
C          1.25050        3.15528       -0.84301
C          0.10881        3.37577        1.11708
N          0.23027        2.49899       -0.03641
O         -0.00123        0.78835       -1.50556
H         -3.69935       -2.27261       -0.03731
H         -5.05947       -1.24691        0.23152
H         -4.13251       -1.79587        1.59808
H         -2.19911        1.27074        0.54060
H         -0.80668        0.42823        1.10963
H         -0.83796       -2.45206        0.81464
H          1.34893       -0.84086        2.37163
H          3.71606       -0.60145        2.31697
H          4.95944       -0.94515        0.17130
H          3.62349       -1.51282       -1.84351
H          1.26066       -1.69517       -1.75440
H         -0.11594       -1.25302       -1.66743
H         -1.29818       -2.47673       -1.39290
H          0.36679       -2.80113       -1.11628
H          0.89392        4.13995       -1.09186
H          1.03876        3.36778        1.67305
H          1.54212        2.75333       -1.77223
H         -0.64854        3.20017        1.82873
H          2.11432        3.24248       -0.27813
H         -0.07075        4.38090        0.77060
