38
../min.omega.0.chi1.105.phi1.90.log	Energy: -505593.5134641
N          0.14252        0.87058       -0.13741
C          1.34434        2.64627       -1.38996
C          0.23430        2.20655       -0.45328
C         -0.71640        0.34182        0.94664
C         -1.04131        1.31214        2.08287
C         -1.96013       -0.33509        0.37529
C         -2.25616       -1.66350        0.70352
C         -3.39433       -2.28358        0.20767
C         -4.26019       -1.58408       -0.63117
C         -3.97742       -0.26625       -0.96250
C         -2.83419        0.35713       -0.46203
C          1.06758       -0.10286       -0.67218
O         -0.57904        3.02989       -0.05776
C          2.31208       -0.30222        0.22172
C          4.40089       -1.45513        0.65611
C          3.13185       -2.03286       -1.37093
N          3.16612       -1.31887       -0.10480
O          2.49653        0.42338        1.18537
H          2.31813        2.32221       -1.04435
H          1.31745        3.72448       -1.42952
H          1.18115        2.25943       -2.39083
H          0.53914       -1.04288       -0.77065
H          1.38483        0.16955       -1.66802
H         -0.11603       -0.43502        1.40325
H         -1.59395       -2.21081        1.35297
H         -3.60620       -3.30497        0.47001
H         -5.14202       -2.06329       -1.01744
H         -4.64237        0.28184       -1.60615
H         -2.62415        1.38004       -0.71647
H         -1.74845        2.07208        1.79637
H         -0.13702        1.79035        2.43765
H         -1.46280        0.72826        2.89547
H          4.62808       -2.50747        0.78001
H          3.75999       -1.55593       -2.12000
H          4.27728       -0.99755        1.62213
H          2.12878       -2.11052       -1.75946
H          5.23270       -0.97908        0.14318
H          3.49962       -3.03894       -1.21413
