38
../min.omega.0.chi1.240.phi1.330.log	Energy: -505588.7046544
N         -0.17238        0.99970        0.04658
C         -2.08009        1.64230       -1.46467
C         -0.72312        1.90003       -0.83609
C          1.16671        1.32115        0.59062
C          1.10032        1.69572        2.07164
C          2.17191        0.23132        0.22545
C          2.51746        0.07447       -1.12215
C          3.42598       -0.89604       -1.52028
C          4.01410       -1.73402       -0.57447
C          3.68469       -1.58651        0.76573
C          2.76997       -0.61074        1.16222
C         -0.72829       -0.25315        0.50553
O         -0.13160        2.92795       -1.13498
C         -2.26759       -0.36476        0.58089
C         -4.28252       -1.67943        0.24179
C         -2.18515       -2.42759       -0.83364
N         -2.86480       -1.44844       -0.00096
O         -2.88936        0.45757        1.23382
H         -2.22614        0.61241       -1.76420
H         -2.13925        2.27719       -2.33609
H         -2.86269        1.91187       -0.76958
H         -0.29698       -1.07125       -0.05190
H         -0.43031       -0.39505        1.53476
H          1.46591        2.20845        0.06257
H          2.07564        0.72601       -1.85583
H          3.68138       -0.99459       -2.56036
H          4.72143       -2.48403       -0.88008
H          4.13602       -2.22360        1.50544
H          2.53746       -0.51253        2.20635
H          0.77010        0.88823        2.71508
H          0.40997        2.52102        2.19535
H          2.07842        2.01362        2.41701
H         -4.84398       -1.59705       -0.68348
H         -1.61287       -3.14171       -0.24952
H         -4.64586       -0.94887        0.94261
H         -1.52973       -1.96073       -1.55576
H         -4.43083       -2.67439        0.64877
H         -2.93611       -2.97450       -1.38673
