38
../min.omega.180.chi1.165.phi1.210.log	Energy: -505570.3931142
N         -1.70795        0.16292        0.36105
C         -4.02796       -0.82146        0.53145
C         -3.06489        0.29646        0.17697
C         -1.10824       -1.18943        0.29814
C         -1.68575       -2.03666       -0.83623
C          0.40966       -1.27126        0.15387
C          1.15763       -1.36137        1.33390
C          2.52751       -1.58282        1.32014
C          3.18751       -1.73162        0.10157
C          2.46222       -1.65172       -1.07910
C          1.08514       -1.42999       -1.05559
C         -1.06628        1.38561       -0.06629
O         -3.56826        1.35131       -0.18327
C          0.36245        1.46454       -0.64945
C          2.65326        2.27356       -0.43662
C          1.28458        2.07511        1.59810
N          1.36783        1.92598        0.15419
O          0.51285        1.29325       -1.84828
H         -4.48987       -1.19607       -0.37205
H         -4.80891       -0.36083        1.12235
H         -3.60392       -1.64031        1.09268
H         -1.63065        1.79387       -0.88543
H         -1.15694        2.10804        0.73293
H         -1.34153       -1.66997        1.23938
H          0.65308       -1.27313        2.28099
H          3.07034       -1.65670        2.24551
H          4.24703       -1.91401        0.07647
H          2.95812       -1.76234       -2.02627
H          0.56559       -1.35839       -1.98812
H         -1.61234       -1.50994       -1.78107
H         -2.71615       -2.31052       -0.69693
H         -1.12839       -2.96102       -0.92215
H          2.93076        3.28002       -0.13780
H          2.17552        1.65468        2.04934
H          2.57535        2.22606       -1.50862
H          0.43526        1.54829        2.00070
H          3.42353        1.58727       -0.10152
H          1.21725        3.12243        1.88017
