38
../min.omega.0.chi1.210.phi1.0.log	Energy: -505586.4976785
N         -0.23436        0.88846       -0.16244
C         -2.47346        1.65720       -1.04925
C         -1.05588        1.91334       -0.57200
C          1.06642        1.31923        0.39870
C          0.89986        1.73024        1.86207
C          2.17189        0.29294        0.16170
C          2.69301        0.16699       -1.13160
C          3.71144       -0.73298       -1.41207
C          4.24102       -1.52606       -0.39560
C          3.74077       -1.40627        0.89351
C          2.71372       -0.50356        1.16981
C         -0.49386       -0.53186       -0.09414
O         -0.65970        3.06958       -0.52728
C         -1.86611       -1.10048       -0.51979
C         -4.06899       -1.93765        0.09316
C         -2.77263       -0.68568        1.77519
N         -2.82989       -1.25358        0.43794
O         -2.01485       -1.49611       -1.66457
H         -2.51914        0.93348       -1.84982
H         -2.84929        2.60753       -1.39643
H         -3.09954        1.31261       -0.23611
H          0.18602       -1.04578       -0.75543
H         -0.27817       -0.87813        0.90881
H          1.33830        2.20312       -0.15183
H          2.29194        0.77870       -1.92103
H          4.09424       -0.81257       -2.41365
H          5.03298       -2.22151       -0.60788
H          4.14506       -2.00902        1.68708
H          2.34998       -0.42843        2.17736
H          0.53417        0.91492        2.47945
H          0.19400        2.54777        1.92290
H          1.84409        2.06662        2.27675
H         -4.33244       -2.62526        0.88944
H         -1.98541        0.04590        1.86015
H         -3.93280       -2.48383       -0.82405
H         -2.61965       -1.45799        2.52316
H         -4.88131       -1.22725       -0.03268
H         -3.71014       -0.18521        1.99193
