38
../min.omega.0.chi1.345.phi1.330.log	Energy: -505575.7926889
N          0.22699        0.10743        0.06828
C          1.35199       -1.99969       -0.72718
C          0.11762       -1.19122       -0.37280
C         -0.93469        0.89066        0.54738
C         -0.87419        2.33829        0.05868
C         -2.33431        0.36882        0.23074
C         -3.16681       -0.01936        1.28730
C         -4.48884       -0.37547        1.06095
C         -5.01145       -0.34531       -0.23080
C         -4.19784        0.04444       -1.28557
C         -2.87028        0.40625       -1.05596
C          1.46770        0.82864        0.24095
O         -0.95837       -1.76875       -0.44036
C          2.74449        0.03931        0.60748
C          5.13564       -0.29382        0.34096
C          3.91886        0.96488       -1.40243
N          3.87237        0.25357       -0.13517
O          2.74306       -0.64714        1.61641
H          2.10930       -1.45126       -1.27140
H          1.00498       -2.81799       -1.34007
H          1.79215       -2.39491        0.17696
H          1.64184        1.49017       -0.59462
H          1.36367        1.45505        1.11687
H         -0.85006        0.90852        1.63034
H         -2.77373       -0.05210        2.28821
H         -5.10944       -0.67578        1.88644
H         -6.03536       -0.62220       -0.40767
H         -4.58761        0.06799       -2.28778
H         -2.25410        0.69000       -1.88993
H         -0.85070        2.38708       -1.02457
H         -0.02302        2.88928        0.43771
H         -1.76388        2.85637        0.39365
H          5.46665       -1.10609       -0.29889
H          4.01067        2.03876       -1.26854
H          5.00781       -0.66397        1.34287
H          3.05131        0.76040       -2.01337
H          5.89397        0.48182        0.33611
H          4.78519        0.62048       -1.95084
