38
../min.omega.180.chi1.225.phi1.30.log	Energy: -505590.5270034
N         -0.20927        0.88123       -0.05502
C         -0.58459        2.80238       -1.60757
C         -1.08407        1.58689       -0.84861
C          1.15741        1.36342        0.24857
C          1.18009        2.08869        1.59452
C          2.19157        0.24870        0.10922
C          2.14070       -0.59077       -1.01005
C          3.10006       -1.57341       -1.20967
C          4.13839       -1.73737       -0.29445
C          4.19833       -0.91344        0.82088
C          3.23092        0.07137        1.02167
C         -0.67552       -0.27792        0.67182
O         -2.26573        1.27990       -0.92120
C         -1.83277       -1.04068       -0.01122
C         -4.02288       -1.99585       -0.02360
C         -3.60078       -0.10674        1.45564
N         -3.02723       -1.16664        0.64220
O         -1.57333       -1.66787       -1.02536
H         -0.25130        3.58101       -0.93062
H         -1.41589        3.17279       -2.18753
H          0.23366        2.55693       -2.27460
H          0.12275       -1.00153        0.71264
H         -0.92406       -0.01286        1.69140
H          1.39965        2.09095       -0.50941
H          1.32800       -0.49792       -1.70692
H          3.03367       -2.21235       -2.07160
H          4.88164       -2.49889       -0.44781
H          4.99017       -1.03194        1.53873
H          3.30494        0.69022        1.89519
H          1.01845        1.41070        2.42510
H          0.39775        2.83920        1.61686
H          2.12644        2.59358        1.75087
H         -4.77984       -2.27310        0.70021
H         -4.22060        0.54981        0.85460
H         -3.55652       -2.88599       -0.41199
H         -2.83903        0.49500        1.92205
H         -4.49601       -1.46427       -0.84448
H         -4.20695       -0.55122        2.23665
