38
../min.omega.0.chi1.255.phi1.180.log	Energy: -505587.2967692
N          1.47771       -0.46084        0.10495
C          3.54571       -1.12808       -1.11236
C          2.34001       -1.47013       -0.25667
C          0.47703       -0.80378        1.14106
C          0.57649        0.05599        2.40163
C         -0.92945       -0.99955        0.57983
C         -1.13874       -2.00590       -0.37070
C         -2.40366       -2.24938       -0.88693
C         -3.49526       -1.49779       -0.45546
C         -3.30465       -0.50846        0.49917
C         -2.03112       -0.26250        1.01266
C          1.78107        0.87386       -0.35965
O          2.16977       -2.63099        0.08868
C          0.83537        2.03324        0.02647
C         -1.16437        3.35127       -0.40684
C         -0.70872        1.40473       -1.83856
N         -0.32779        2.18924       -0.67517
O          1.19206        2.81640        0.89167
H          3.25213       -0.75952       -2.08919
H          4.11346       -2.03702       -1.23735
H          4.17003       -0.37516       -0.64621
H          2.72495        1.21095        0.04652
H          1.87472        0.87564       -1.43718
H          0.78840       -1.78705        1.44685
H         -0.30721       -2.60716       -0.68967
H         -2.54118       -3.03010       -1.61384
H         -4.47692       -1.69039       -0.85004
H         -4.14009        0.07081        0.85086
H         -1.91190        0.50716        1.75144
H          0.22706        1.06993        2.29544
H          1.60943        0.09784        2.72795
H         -0.00126       -0.41930        3.18730
H         -1.11588        4.05538       -1.23301
H         -0.21005        0.45125       -1.85228
H         -0.82545        3.83786        0.49099
H         -0.48689        1.94214       -2.75767
H         -2.19381        3.03363       -0.28425
H         -1.77203        1.21009       -1.79988
