38
../min.omega.0.chi1.315.phi1.150.log	Energy: -505579.1003334
N          0.23992        1.05999       -0.25196
C         -0.00023        3.29978        0.83954
C         -0.55790        2.14559        0.02729
C         -0.42128       -0.06071       -0.95859
C          0.40332       -1.32774       -1.18835
C         -1.79087       -0.42932       -0.39305
C         -2.90925       -0.49776       -1.23245
C         -4.13122       -0.93882       -0.74455
C         -4.26035       -1.31777        0.59050
C         -3.15587       -1.25745        1.42890
C         -1.92422       -0.82423        0.93756
C          1.59106        1.09271        0.26055
O         -1.68252        2.25023       -0.44188
C          2.28590       -0.24058        0.61707
C          4.19958       -1.71178        0.50214
C          3.91597       -0.06179       -1.29009
N          3.46198       -0.56125       -0.00227
O          1.84968       -0.89158        1.55252
H          0.18094        3.01770        1.87141
H         -0.74629        4.07886        0.81837
H          0.92626        3.68120        0.42577
H          2.22481        1.68253       -0.38910
H          1.59821        1.58056        1.22125
H         -0.62398        0.33059       -1.95090
H         -2.82541       -0.18306       -2.25753
H         -4.98379       -0.97772       -1.39929
H         -5.21009       -1.65349        0.96729
H         -3.24383       -1.55194        2.45976
H         -1.06788       -0.79578        1.58890
H          0.57814       -1.89133       -0.28584
H          1.34844       -1.11859       -1.67694
H         -0.17123       -1.95133       -1.86303
H          3.91500       -2.62069       -0.02056
H          4.85281        0.47556       -1.18433
H          4.00211       -1.83820        1.55280
H          3.19193        0.59113       -1.74800
H          5.25876       -1.54075        0.35024
H          4.07671       -0.89635       -1.96471
