38
../min.omega.180.chi1.120.phi1.300.log	Energy: -505588.6542905
N          0.21591        0.98395        0.23093
C          0.29157        2.89479       -1.43403
C          0.94456        1.82610       -0.57707
C         -1.15091        1.13244        0.78069
C         -1.82394        2.49663        0.62538
C         -2.08170        0.01053        0.32632
C         -3.17100       -0.33060        1.13696
C         -4.07574       -1.30672        0.74398
C         -3.90266       -1.96655       -0.47147
C         -2.81754       -1.64569       -1.27520
C         -1.90800       -0.66389       -0.88167
C          1.03587        0.04266        0.95959
O          2.16163        1.71067       -0.61279
C          1.85012       -0.86577        0.01126
C          3.85667       -2.08328       -0.51738
C          3.87637       -0.49974        1.38183
N          3.10022       -1.25141        0.40888
O          1.32374       -1.29957       -1.00061
H         -0.62442        2.55808       -1.89783
H          1.00975        3.14794       -2.19976
H          0.08716        3.78287       -0.85107
H          1.66393        0.56125        1.66765
H          0.38423       -0.62691        1.50584
H         -1.02038        1.01605        1.85196
H         -3.31044        0.16632        2.08264
H         -4.90504       -1.55632        1.38164
H         -4.59891       -2.72672       -0.77758
H         -2.66460       -2.16234       -2.20562
H         -1.04822       -0.46236       -1.48866
H         -2.14831        2.70108       -0.38390
H         -1.18203        3.29920        0.96974
H         -2.70913        2.49659        1.24967
H          4.42043       -1.47958       -1.22363
H          4.84433       -0.97135        1.47618
H          3.17889       -2.71407       -1.06623
H          3.41589       -0.51967        2.36186
H          4.54593       -2.70140        0.04485
H          4.02298        0.52946        1.07561
