38
../min.omega.0.chi1.150.phi1.90.log	Energy: -505589.9405425
N         -0.36784        1.26686        0.22189
C         -2.42294        2.35769        1.10616
C         -1.08955        2.42685        0.38493
C          0.69265        1.10231       -0.79829
C          1.38874        2.37541       -1.28077
C          1.75503        0.11939       -0.31177
C          2.06491       -1.01587       -1.07019
C          3.06786       -1.88759       -0.67019
C          3.78022       -1.64474        0.50293
C          3.48055       -0.52424        1.26524
C          2.47580        0.35393        0.85860
C         -0.90058        0.02715        0.74016
O         -0.70418        3.51727       -0.01298
C         -1.78204       -0.73056       -0.27792
C         -3.04287       -2.71240       -0.87943
C         -1.96279       -2.63099        1.32670
N         -2.12717       -2.02020        0.01752
O         -2.14254       -0.17990       -1.30553
H         -3.08794        1.63757        0.64656
H         -2.86021        3.34194        1.04036
H         -2.30293        2.10486        2.15474
H         -0.07787       -0.60337        1.03438
H         -1.47859        0.20393        1.63366
H          0.21398        0.65536       -1.66115
H          1.51783       -1.21289       -1.97575
H          3.29329       -2.75347       -1.26695
H          4.55649       -2.32072        0.81381
H          4.02582       -0.32650        2.17100
H          2.25083        1.21947        1.45624
H          1.83286        2.93129       -0.46655
H          0.71699        3.03062       -1.80892
H          2.18022        2.06520       -1.95576
H         -2.75662       -3.75572       -0.94287
H         -2.85626       -2.51639        1.93641
H         -2.99307       -2.26524       -1.85688
H         -1.12438       -2.21448        1.86097
H         -4.06611       -2.65546       -0.51682
H         -1.77547       -3.68975        1.19868
