38
../min.omega.180.chi1.240.phi1.270.log	Energy: -505595.3658952
N         -0.16470        1.07147       -0.03782
C          0.15991        3.54810       -0.09245
C         -0.52418        2.28408       -0.57946
C          0.92799        0.89065        0.94495
C          0.40087        0.52532        2.33304
C          1.99747       -0.05178        0.39764
C          2.61704        0.26283       -0.81776
C          3.61561       -0.54261       -1.34684
C          4.01986       -1.69121       -0.66864
C          3.41428       -2.01700        0.53700
C          2.41196       -1.20341        1.06565
C         -0.86333       -0.08297       -0.55596
O         -1.38527        2.35477       -1.44512
C         -2.15127       -0.41066        0.23232
C         -4.17905       -1.72456        0.40886
C         -2.68988       -2.08614       -1.51910
N         -2.88768       -1.47184       -0.21620
O         -2.46895        0.22908        1.22175
H          0.06707        3.66389        0.98108
H         -0.32402        4.37835       -0.58372
H          1.21447        3.55584       -0.34605
H         -1.11086        0.09518       -1.58948
H         -0.20640       -0.94204       -0.50984
H          1.40290        1.85408        1.04000
H          2.31017        1.14136       -1.35731
H          4.07664       -0.27718       -2.28137
H          4.79309       -2.31772       -1.07544
H          3.71575       -2.90042        1.07092
H          1.96458       -1.47972        2.00101
H         -0.07984       -0.44357        2.35254
H         -0.33704        1.25156        2.64276
H          1.21628        0.52242        3.04943
H         -4.98580       -1.26069       -0.15304
H         -3.10393       -3.08579       -1.49359
H         -4.17524       -1.32484        1.40786
H         -1.64174       -2.17668       -1.76066
H         -4.35358       -2.79360        0.44731
H         -3.18568       -1.53239       -2.31277
