38
../min.omega.180.chi1.210.phi1.240.log	Energy: -505592.8806760
N          1.52330       -0.09055       -0.19685
C          3.89106       -0.90928       -0.04466
C          2.84253        0.06074       -0.55706
C          1.03581       -1.28096        0.53648
C          1.30270       -1.20823        2.04034
C         -0.41858       -1.60136        0.19946
C         -0.69057       -2.33807       -0.95956
C         -1.99010       -2.67483       -1.31114
C         -3.05337       -2.28371       -0.49928
C         -2.79822       -1.55871        0.65644
C         -1.49074       -1.21958        1.00506
C          0.60884        0.88785       -0.74074
O          3.21547        0.99036       -1.25889
C         -0.14647        1.71758        0.32162
C         -1.93581        3.29187        0.80055
C         -1.56008        2.58311       -1.53493
N         -1.10757        2.56630       -0.15326
O          0.12369        1.64426        1.50939
H          4.18852       -0.60981        0.95388
H          4.74740       -0.81509       -0.69531
H          3.57802       -1.94244       -0.00799
H          1.18843        1.56462       -1.34582
H         -0.11419        0.40479       -1.38334
H          1.59220       -2.12451        0.15399
H          0.12440       -2.64887       -1.59070
H         -2.17332       -3.24318       -2.20543
H         -4.06185       -2.54668       -0.76385
H         -3.61041       -1.25605        1.29301
H         -1.31845       -0.64970        1.89686
H          0.83497       -0.34548        2.48537
H          2.36605       -1.14071        2.23249
H          0.93823       -2.11158        2.51998
H         -2.05419        4.31770        0.47069
H         -2.29339        1.80587       -1.73556
H         -1.45921        3.27967        1.76496
H         -0.73647        2.47438       -2.22441
H         -2.92092        2.83930        0.88335
H         -2.02119        3.54209       -1.73095
