38
../min.omega.180.chi1.285.phi1.270.log	Energy: -505595.0703012
N         -0.19071        0.57465        0.07085
C          0.91271        2.80927        0.09738
C         -0.14801        1.85763       -0.42429
C          0.82958        0.05245        1.00829
C          0.32535       -1.14251        1.81820
C          2.16153       -0.27071        0.33524
C          3.33489       -0.22921        1.09783
C          4.56273       -0.55853        0.54126
C          4.64500       -0.93688       -0.79767
C          3.48990       -0.97665       -1.56618
C          2.25679       -0.64476       -1.00464
C         -1.23059       -0.26526       -0.47915
O         -0.95927        2.23651       -1.25745
C         -2.54216       -0.17500        0.33278
C         -4.92117       -0.62354        0.46945
C         -3.69528       -1.28182       -1.56624
N         -3.63711       -0.80089       -0.19534
O         -2.57255        0.39458        1.41158
H          0.73221        3.03302        1.14371
H          0.83321        3.72150       -0.47417
H          1.91135        2.40441        0.00167
H         -1.41380        0.04236       -1.49495
H         -0.90964       -1.29775       -0.49635
H          1.01154        0.84067        1.72593
H          3.28623        0.06802        2.13175
H          5.45178       -0.51504        1.14469
H          5.59556       -1.18895       -1.23201
H          3.54152       -1.25987       -2.60235
H          1.37740       -0.66649       -1.62099
H          0.22181       -2.03519        1.21229
H         -0.62038       -0.91171        2.28809
H          1.05133       -1.36854        2.59050
H         -5.50366        0.16131       -0.00606
H         -4.49192       -2.01046       -1.63914
H         -4.75418       -0.35982        1.49913
H         -2.77897       -1.77703       -1.85215
H         -5.48158       -1.55002        0.41953
H         -3.89813       -0.48241       -2.27431
