38
../min.omega.0.chi1.195.phi1.90.log	Energy: -505593.6008705
N          1.52827       -0.30865        0.12642
C          3.54891        1.14127        0.28173
C          2.86440       -0.14057       -0.15557
C          0.93542       -1.62137       -0.21680
C          1.49845       -2.72063        0.68473
C         -0.59095       -1.58096       -0.20962
C         -1.24988       -1.02823       -1.31431
C         -2.63543       -0.97792       -1.37380
C         -3.39937       -1.48812       -0.32560
C         -2.76071       -2.04616        0.77310
C         -1.36763       -2.09375        0.82869
C          0.76373        0.69961        0.82513
O          3.50142       -1.00517       -0.74082
C          0.10886        1.72193       -0.13069
C         -1.59623        3.39804       -0.53065
C         -1.54156        2.24072        1.65066
N         -0.88983        2.50508        0.37810
O          0.53205        1.85348       -1.26768
H          3.03217        2.01466       -0.09448
H          4.55256        1.11713       -0.11467
H          3.60283        1.20350        1.36420
H          0.01486        0.21410        1.42713
H          1.39240        1.25381        1.50936
H          1.24868       -1.83225       -1.22830
H         -0.66785       -0.62354       -2.12213
H         -3.11728       -0.55060       -2.23491
H         -4.47328       -1.45724       -0.37160
H         -3.33792       -2.45233        1.58466
H         -0.90243       -2.54088        1.68664
H          1.31384       -2.50948        1.73369
H          2.56439       -2.80243        0.53894
H          1.04501       -3.67680        0.44453
H         -2.53062        2.95469       -0.86494
H         -2.07896        3.13117        1.94771
H         -0.97550        3.59590       -1.38696
H         -0.82167        2.02768        2.42830
H         -1.81616        4.32913       -0.02155
H         -2.24989        1.41915        1.58877
