38
../min.omega.180.chi1.90.phi1.90.log	Energy: -501908.1903149
N          0.73808        1.24326        0.57936
C          0.62378        3.38376        0.98964
C          1.08052        2.40391       -0.07534
C         -0.66222        0.78312        0.43821
C         -0.59860        1.30251       -0.99856
C         -1.93605        0.09806       -0.05122
C         -2.28623       -0.61593        1.10101
C         -3.40201       -1.41495        1.30693
C         -4.31020       -1.57175        0.26135
C         -4.02032       -0.89219       -0.91364
C         -2.88878       -0.08816       -1.05217
C          1.04359        0.04806       -0.17394
O          0.87943        3.17166       -1.00592
C          2.44269       -0.57186        0.04008
C          3.96136       -2.47064        0.04075
C          1.60888       -2.87466       -0.53350
N          2.62496       -1.91633       -0.12948
O          3.34788        0.17214        0.38102
H         -0.38466        3.23351        1.30459
H          0.64320        4.41343        0.65356
H          1.18749        3.37670        1.94037
H          1.06500       -0.56171        0.81276
H          0.28580       -0.62587       -0.61168
H         -1.09402        1.50349        1.10122
H         -1.63167       -0.54713        1.96210
H         -3.54361       -1.89643        2.25819
H         -5.18941       -2.18241        0.36038
H         -4.67498       -0.95601       -1.76183
H         -2.84486        0.35923       -2.02189
H         -0.34700        0.41094       -1.58404
H         -0.16520        1.95046       -1.85815
H         -1.53061        1.62586       -1.32243
H          3.95056       -3.23095        0.81679
H          1.81319       -3.25535       -1.53042
H          4.64092       -1.68389        0.31861
H          0.61975       -2.44487       -0.53601
H          4.29717       -2.92977       -0.88489
H          1.60485       -3.71374        0.15514
