38
../min.omega.0.chi1.210.phi1.120.log	Energy: -505590.0202224
N          1.65804       -0.06923        0.00417
C          3.81328        1.15132       -0.33367
C          2.97461       -0.11200       -0.39310
C          1.04991       -1.37807        0.33523
C          1.45725       -1.80732        1.74517
C         -0.45171       -1.44480        0.06654
C         -0.89645       -1.53582       -1.25784
C         -2.24703       -1.66028       -1.55153
C         -3.18679       -1.69991       -0.52297
C         -2.76140       -1.61289        0.79532
C         -1.40254       -1.48908        1.08549
C          1.03668        1.14565        0.48093
O          3.50497       -1.16292       -0.72495
C         -0.17325        1.58420       -0.37423
C         -2.38710        2.56392       -0.53703
C         -1.36003        2.32244        1.69557
N         -1.21696        2.20580        0.25336
O         -0.11137        1.46369       -1.58699
H          3.40115        1.94971       -0.93987
H          4.79448        0.89692       -0.70372
H          3.90079        1.50400        0.68874
H          0.75748        1.01975        1.51795
H          1.73072        1.96900        0.44301
H          1.51162       -2.06810       -0.34919
H         -0.17905       -1.48830       -2.05602
H         -2.56557       -1.72675       -2.57613
H         -4.23309       -1.80310       -0.74929
H         -3.47603       -1.65254        1.59831
H         -1.09798       -1.44508        2.11474
H          1.12559       -1.11003        2.50841
H          2.53663       -1.87613        1.79812
H          1.04704       -2.78283        1.98243
H         -3.22366        1.91618       -0.29329
H         -2.13023        3.05431        1.89676
H         -2.15196        2.45961       -1.58128
H         -0.45249        2.67985        2.16288
H         -2.66852        3.59109       -0.33145
H         -1.65583        1.38628        2.15847
