38
../min.omega.0.chi1.105.phi1.240.log	Energy: -505587.4237520
N         -1.55906        0.11645        0.25358
C         -3.73063        0.70273       -0.82889
C         -2.74322       -0.31871       -0.29544
C         -0.70827       -0.76304        1.08732
C         -1.42261       -1.90559        1.81011
C          0.53850       -1.25570        0.35632
C          1.75437       -1.33773        1.04551
C          2.89472       -1.82907        0.42584
C          2.83838       -2.24963       -0.90179
C          1.63715       -2.17688       -1.59330
C          0.49036       -1.68542       -0.96931
C         -1.23402        1.52258        0.33397
O         -3.00767       -1.50864       -0.39541
C          0.06082        1.85785       -0.43969
C          2.29896        2.72339       -0.63463
C          1.38112        2.46630        1.61549
N          1.12673        2.44461        0.18411
O          0.04259        1.66738       -1.64491
H         -4.04791        1.40120       -0.06226
H         -4.58790        0.15177       -1.18381
H         -3.30379        1.26395       -1.65225
H         -1.98209        2.11159       -0.16414
H         -1.21447        1.84043        1.36715
H         -0.35624       -0.10602        1.87625
H          1.80614       -1.02088        2.07390
H          3.82039       -1.88393        0.97096
H          3.72091       -2.62745       -1.38634
H          1.58522       -2.49810       -2.61804
H         -0.43334       -1.63206       -1.51253
H         -1.68308       -2.71477        1.15002
H         -2.32465       -1.55469        2.29915
H         -0.74698       -2.27843        2.57359
H          2.81719        3.58146       -0.22326
H          2.09441        1.69647        1.89424
H          1.99325        2.93684       -1.64410
H          0.48200        2.32453        2.19012
H          2.97684        1.87482       -0.64488
H          1.79731        3.42957        1.88594
