38
../min.omega.0.chi1.270.phi1.330.log	Energy: -505586.9964074
N          0.17003       -0.91436        0.32127
C          1.57979       -1.55716       -1.66754
C          0.37962       -1.74226       -0.75747
C         -1.13867       -1.04612        1.00128
C         -1.03599       -0.97468        2.52525
C         -2.17667       -0.10743        0.39061
C         -2.94256       -0.55454       -0.69270
C         -3.88289        0.27231       -1.29095
C         -4.08083        1.56912       -0.82004
C         -3.33022        2.02502        0.25474
C         -2.38751        1.19026        0.85516
C          0.99256        0.19496        0.74806
O         -0.40738       -2.64138       -1.01839
C          2.50737        0.11873        0.45290
C          4.55252        1.22555       -0.24955
C          2.38972        2.29743       -0.77749
N          3.09856        1.18289       -0.16971
O          3.14447       -0.83205        0.87631
H          1.77188       -0.51955       -1.90829
H          1.35675       -2.09573       -2.57623
H          2.46596       -1.97512       -1.21121
H          0.56681        1.12753        0.40455
H          0.98135        0.22463        1.82735
H         -1.45324       -2.04769        0.77216
H         -2.78917       -1.54958       -1.06649
H         -4.46267       -0.09328       -2.11970
H         -4.81192        2.20835       -1.28186
H         -3.47710        3.02122        0.63298
H         -1.83032        1.56480        1.69470
H         -0.82063        0.01136        2.91769
H         -0.26707       -1.65479        2.87508
H         -1.98418       -1.28586        2.94920
H          4.88173        1.11373       -1.27800
H          2.11791        3.05794       -0.05142
H          4.96471        0.42721        0.34193
H          1.49910        1.97604       -1.29810
H          4.91237        2.17724        0.12714
H          3.04345        2.75219       -1.50931
