38
../min.omega.180.chi1.225.phi1.60.log	Energy: -505594.4835993
N         -0.22605        1.07903        0.02247
C         -0.48721        2.93967       -1.62911
C         -1.06868        1.86389       -0.73051
C          1.19265        1.41195        0.28508
C          1.33061        2.12505        1.63066
C          2.10496        0.20125        0.10232
C          1.91339       -0.64707       -0.99482
C          2.77051       -1.71391       -1.22503
C          3.84041       -1.95818       -0.36579
C          4.03717       -1.12713        0.72831
C          3.17389       -0.05607        0.95990
C         -0.88262        0.08621        0.84254
O         -2.27839        1.69200       -0.67654
C         -1.70635       -0.89943       -0.01627
C         -3.65043       -2.27967       -0.33687
C         -3.61500       -0.67079        1.54073
N         -2.87790       -1.37512        0.50407
O         -1.25178       -1.30262       -1.07455
H         -0.03669        3.73711       -1.04797
H         -1.30212        3.34629       -2.20853
H          0.26467        2.53694       -2.29744
H         -0.12429       -0.50904        1.33445
H         -1.48623        0.56107        1.60004
H          1.47535        2.12084       -0.47848
H          1.07068       -0.49805       -1.64030
H          2.59810       -2.35781       -2.06851
H          4.50267       -2.78617       -0.54507
H          4.85422       -1.30551        1.40449
H          3.35318        0.56693        1.81522
H          1.12431        1.46252        2.46447
H          0.62983        2.95137        1.67685
H          2.32731        2.53027        1.76106
H         -4.23439       -2.93729        0.29533
H         -3.86556        0.34111        1.24385
H         -2.97994       -2.86780       -0.93942
H         -3.06679       -0.64490        2.47435
H         -4.32230       -1.73443       -0.99434
H         -4.53293       -1.21044        1.72598
