38
../min.omega.0.chi1.240.phi1.210.log	Energy: -505588.8769127
N         -1.59565       -0.24527        0.08851
C         -3.31025       -0.70410       -1.67184
C         -2.87297       -0.03946       -0.37958
C         -1.08106        0.77364        1.03165
C         -1.01372        0.29793        2.48330
C          0.17660        1.44566        0.48557
C          0.05767        2.30804       -0.61088
C          1.16582        2.95422       -1.14027
C          2.42505        2.75582       -0.57671
C          2.55768        1.90950        0.51534
C          1.44169        1.25826        1.04117
C         -0.70075       -1.09275       -0.66662
O         -3.65318        0.70876        0.19250
C          0.35637       -1.85036        0.16771
C          2.55836       -2.85963        0.29964
C          1.96625       -1.54975       -1.71608
N          1.54868       -2.11936       -0.44516
O          0.08154       -2.27614        1.27781
H         -2.62222       -0.49410       -2.48300
H         -4.28418       -0.30792       -1.91463
H         -3.39082       -1.78086       -1.56685
H         -1.26761       -1.88474       -1.13352
H         -0.22102       -0.53043       -1.45506
H         -1.84337        1.53402        1.02021
H         -0.91362        2.48128       -1.04183
H          1.04891        3.61744       -1.97880
H          3.28430        3.26173       -0.97925
H          3.52290        1.75618        0.96445
H          1.56519        0.61054        1.88866
H         -0.29481       -0.48547        2.65340
H         -1.98962       -0.07927        2.76335
H         -0.78244        1.14546        3.12226
H          2.96588       -3.64898       -0.32190
H          2.08992       -0.47408       -1.66494
H          2.10745       -3.29234        1.17503
H          1.27578       -1.79169       -2.51484
H          3.36962       -2.20405        0.60373
H          2.92125       -1.98332       -1.97669
