38
../min.omega.0.chi1.315.phi1.120.log	Energy: -505586.1958691
N         -0.22987        1.05136        0.34211
C         -0.43394        3.18869       -0.94213
C          0.39702        2.11955       -0.25704
C          0.60286        0.10427        1.11804
C         -0.13382       -1.14009        1.61502
C          1.90390       -0.31480        0.43747
C          3.10904       -0.24160        1.14624
C          4.28734       -0.71992        0.59070
C          4.28390       -1.27989       -0.68565
C          3.09249       -1.35963       -1.39317
C          1.90481       -0.88811       -0.83358
C         -1.67044        0.93362        0.32781
O          1.60275        2.29704       -0.15435
C         -2.20731       -0.34072       -0.36168
C         -3.98532       -1.95769       -0.67766
C         -4.44867       -0.00094        0.72283
N         -3.46306       -0.76443       -0.02532
O         -1.53361       -0.92353       -1.19572
H         -1.05659        2.79687       -1.73860
H          0.26230        3.89997       -1.35855
H         -1.06901        3.70063       -0.22642
H         -2.04230        0.97981        1.34394
H         -2.10424        1.77042       -0.19242
H          0.90181        0.65276        2.00777
H          3.12579        0.20668        2.12433
H          5.20623       -0.64956        1.14564
H          5.19838       -1.64536       -1.11814
H          3.07920       -1.79109       -2.37862
H          0.98441       -0.95984       -1.38321
H         -0.36639       -1.82588        0.81501
H         -1.04190       -0.90180        2.16002
H          0.52745       -1.64865        2.30647
H         -4.59746       -2.50520        0.02984
H         -5.32137        0.17964        0.10273
H         -3.16937       -2.57889       -1.00390
H         -4.06822        0.95583        1.03884
H         -4.59650       -1.69848       -1.53769
H         -4.76588       -0.55094        1.60273
