38
../min.omega.180.chi1.75.phi1.90.log	Energy: -501982.2753686
N         -0.71894        1.25098       -0.40699
C         -0.57915        3.32426       -1.00536
C         -1.29741        2.43393       -0.00821
C          0.63926        0.68561       -0.23929
C          1.15329        1.54856        0.91362
C          2.01865        0.08506        0.02172
C          2.15113       -0.93533       -0.92766
C          3.24086       -1.76555       -1.14911
C          4.37174       -1.63062       -0.34565
C          4.30357       -0.64512        0.62932
C          3.17782        0.16234        0.79284
C         -1.22008        0.15415        0.38995
O         -1.58518        3.29733        0.80884
C         -2.47900       -0.61103       -0.07609
C         -3.86831       -2.59447       -0.19269
C         -1.77430       -2.76058        1.05716
N         -2.65079       -1.92788        0.24943
O         -3.28179       -0.01831       -0.77849
H          0.48909        3.20318       -0.91619
H         -0.77535        4.37729       -0.86788
H         -0.78940        3.12263       -2.05793
H         -0.93198       -0.57606       -0.47019
H         -0.65373       -0.42738        1.09087
H          1.02582        1.20718       -1.11783
H          1.33167       -1.10330       -1.60731
H          3.19392       -2.49594       -1.93524
H          5.24152       -2.24689       -0.46885
H          5.12829       -0.46976        1.29430
H          3.30068        0.86046        1.59198
H          0.97376        1.04998        1.84500
H          0.97536        2.71093        1.57235
H          2.14792        1.87178        0.84946
H         -3.61672       -3.45206       -0.80829
H         -2.24709       -3.01173        2.00137
H         -4.46457       -1.90694       -0.76288
H         -0.83183       -2.28841        1.27199
H         -4.43670       -2.94240        0.66426
H         -1.56516       -3.68358        0.52803
