38
../min.omega.0.chi1.240.phi1.0.log	Energy: -505588.3091001
N         -0.27754        1.09894        0.05204
C         -2.38753        1.47327       -1.27561
C         -0.93276        1.76551       -0.95760
C          1.12493        1.49935        0.30746
C          1.26766        2.24162        1.63667
C          2.07667        0.32098        0.11480
C          2.26597       -0.16287       -1.18524
C          3.11888       -1.22830       -1.43666
C          3.80916       -1.83352       -0.38791
C          3.63746       -1.35898        0.90506
C          2.77777       -0.28902        1.15434
C         -0.75947        0.07580        0.95217
O         -0.35201        2.60563       -1.63049
C         -2.21643       -0.43170        0.86685
C         -3.81139       -2.10493        0.10965
C         -1.55823       -2.09842       -0.88290
N         -2.47285       -1.53024        0.09418
O         -3.06827        0.08657        1.57035
H         -2.51680        0.46511       -1.64727
H         -2.67180        2.16827       -2.05069
H         -3.02670        1.60620       -0.41459
H         -0.09276       -0.77292        0.89802
H         -0.71363        0.45254        1.96393
H          1.34998        2.20791       -0.46780
H          1.74814        0.31179       -2.00062
H          3.25395       -1.57911       -2.44429
H          4.47405       -2.65636       -0.58001
H          4.16890       -1.81426        1.72165
H          2.66710        0.06167        2.16342
H          1.05187        1.63170        2.50572
H          0.59130        3.08842        1.64653
H          2.28012        2.61674        1.74041
H         -4.37122       -1.80910       -0.77346
H         -1.27183       -3.10604       -0.59897
H         -4.33595       -1.77005        0.98771
H         -0.66673       -1.50249       -0.98898
H         -3.73438       -3.18643        0.12245
H         -2.04476       -2.14478       -1.85214
