38
../min.omega.0.chi1.225.phi1.150.log	Energy: -505584.7693957
N          1.60221       -0.25153       -0.06726
C          3.95587        0.19012       -0.78308
C          2.86918       -0.74314       -0.28205
C          0.78556       -1.01331        0.90498
C          0.90984       -0.41341        2.30598
C         -0.64799       -1.26911        0.44561
C         -0.84336       -2.01349       -0.72391
C         -2.11979       -2.34266       -1.15767
C         -3.23360       -1.93748       -0.42425
C         -3.05449       -1.20546        0.74130
C         -1.76997       -0.87566        1.17406
C          1.35008        1.14752       -0.32877
O          3.16181       -1.90373       -0.03056
C         -0.09471        1.46940       -0.77211
C         -2.17506        2.64545       -0.57975
C         -0.36642        3.23101        0.98424
N         -0.86897        2.31412       -0.02610
O         -0.48818        0.99381       -1.82480
H          3.77444        0.51461       -1.80202
H          4.88179       -0.36317       -0.75606
H          4.04324        1.07200       -0.15854
H          1.65989        1.76184        0.50694
H          1.93215        1.45223       -1.18170
H          1.26280       -1.97611        0.93482
H          0.01202       -2.32280       -1.29671
H         -2.24656       -2.91107       -2.06144
H         -4.22375       -2.19328       -0.75701
H         -3.90626       -0.89279        1.31917
H         -1.66208       -0.31263        2.08175
H          0.45234        0.56578        2.39049
H          1.95759       -0.32370        2.57223
H          0.43777       -1.06105        3.03591
H         -2.83869        2.91864        0.23076
H          0.08353        4.11953        0.54657
H         -2.57378        1.78829       -1.09380
H          0.35296        2.76267        1.63616
H         -2.11436        3.47630       -1.27802
H         -1.19754        3.54735        1.59949
