38
../min.omega.0.chi1.135.phi1.150.log	Energy: -505584.2537549
N          1.63639        0.19340       -0.09319
C          3.47070        1.33649        1.13779
C          2.96593        0.20570        0.26062
C          1.00917       -0.88933       -0.88489
C          1.83180       -2.15796       -1.11290
C         -0.32871       -1.29600       -0.27154
C         -1.48241       -1.35792       -1.06223
C         -2.68041       -1.82174       -0.53737
C         -2.75340       -2.23128        0.79289
C         -1.61728       -2.17537        1.58820
C         -0.41328       -1.71342        1.05619
C          0.79548        1.26337        0.39398
O          3.77447       -0.63927       -0.09735
C         -0.38954        1.63801       -0.52414
C         -2.64622        2.47803       -0.77424
C         -1.79244        2.01568        1.50282
N         -1.52258        2.11133        0.07732
O         -0.24839        1.62554       -1.73620
H          3.49960        2.27210        0.58885
H          4.47789        1.07696        1.42500
H          2.87087        1.48447        2.02813
H          0.44251        1.04127        1.39046
H          1.35854        2.18317        0.44797
H          0.79854       -0.46943       -1.85603
H         -1.43771       -1.02859       -2.08440
H         -3.55526       -1.86438       -1.16157
H         -3.68217       -2.59131        1.19800
H         -1.65903       -2.49705        2.61380
H          0.46506       -1.68925        1.67762
H          2.13575       -2.62995       -0.18891
H          2.71263       -1.97275       -1.70397
H          1.18778       -2.84775       -1.64948
H         -3.40073        1.69663       -0.77643
H         -2.72960        2.51694        1.69834
H         -2.29509        2.63079       -1.77950
H         -1.03335        2.51613        2.09110
H         -3.09348        3.39443       -0.40735
H         -1.88462        0.98866        1.83675
