38
../min.omega.180.chi1.180.phi1.330.log	Energy: -505585.7826102
N         -0.18370        0.91751       -0.43400
C         -1.06107        3.27199       -0.47177
C         -1.26295        1.76995       -0.39424
C          1.09462        1.35908        0.16882
C          0.90378        1.79934        1.62067
C          2.18158        0.29486        0.03667
C          2.72663        0.06639       -1.23249
C          3.73248       -0.86950       -1.42787
C          4.22294       -1.59923       -0.34640
C          3.69590       -1.37965        0.91869
C          2.68388       -0.43892        1.11070
C         -0.50365       -0.48971       -0.35219
O         -2.40949        1.35103       -0.47038
C         -1.77570       -0.84483        0.44990
C         -3.85838       -1.98456        0.72931
C         -3.15630       -1.41055       -1.53134
N         -2.76240       -1.58317       -0.14242
O         -1.75759       -0.62975        1.65097
H         -0.03723        3.60764       -0.50530
H         -1.56324        3.73254        0.36974
H         -1.56979        3.59818       -1.37018
H         -0.52902       -0.90887       -1.34742
H          0.27262       -1.00759        0.17996
H          1.44065        2.20418       -0.40961
H          2.35393        0.62711       -2.07232
H          4.13492       -1.02616       -2.41260
H          5.00393       -2.32383       -0.49060
H          4.06607       -1.93571        1.76115
H          2.29346       -0.29752        2.09981
H          0.44365        1.01220        2.20495
H          0.25639        2.66416        1.68480
H          1.85336        2.07143        2.06822
H         -4.54863       -1.16357        0.90288
H         -3.53867       -2.35244       -1.90760
H         -3.46931       -2.31439        1.67825
H         -2.32607       -1.11315       -2.14852
H         -4.39310       -2.80000        0.25721
H         -3.92721       -0.65270       -1.62329
