38
../min.omega.180.chi1.180.phi1.150.log	Energy: -499342.1244534
N         -2.04445       -0.10951        0.14648
C         -3.71389        0.19800        1.11773
C         -2.98788        0.87643       -0.02925
C         -1.02998       -1.17139        0.33558
C         -0.82322       -1.91058       -0.98691
C          0.41035       -0.67541        0.44018
C          0.83364       -0.02657        1.60633
C          2.14485        0.40481        1.74926
C          3.06945        0.20193        0.72623
C          2.65857       -0.43116       -0.43859
C          1.34056       -0.86544       -0.58102
C         -1.06440        0.20751       -0.86758
O         -4.16123        0.86130       -0.37402
C          0.36523       -0.21580       -0.46196
C          2.65021        0.66356       -0.25094
C          0.83079        2.15023       -1.02332
N          1.24345        0.82387       -0.59375
O          0.70731       -1.32961       -0.09924
H         -3.69774       -0.99841        1.05714
H         -4.75481        0.52771        1.01442
H         -3.29965        0.54348        2.18139
H         -1.45096        0.99976       -1.54028
H         -0.23939        0.45342       -0.18364
H         -1.46870       -1.88088        1.04112
H          0.11854        0.12216        2.41992
H          2.45576        0.89522        2.67380
H          4.10518        0.53618        0.83978
H          3.37341       -0.59979       -1.24791
H          1.05219       -1.37688       -1.49978
H         -0.43991       -1.26392       -1.78328
H         -1.77727       -2.32074       -1.32607
H         -0.11333       -2.73334       -0.85191
H          3.29073        0.85785       -1.16017
H          0.94710        2.89760       -0.15660
H          2.86129       -0.38867        0.09635
H         -0.24821        2.20567       -1.39339
H          2.92692        1.38698        0.60289
H          1.49151        2.44579       -1.88128
