38
../min.omega.180.chi1.195.phi1.30.log	Energy: -505586.7262043
N         -0.19153        0.83997       -0.26376
C         -0.85693        3.12742       -0.98610
C         -1.21159        1.72060       -0.54118
C          1.11611        1.35714        0.20002
C          1.01092        1.95634        1.60288
C          2.20137        0.28789        0.09796
C          2.59416       -0.12861       -1.17965
C          3.58760       -1.08230       -1.35095
C          4.21837       -1.63883       -0.23963
C          3.84233       -1.23176        1.03290
C          2.84128       -0.27496        1.20159
C         -0.52800       -0.50034        0.16012
O         -2.38874        1.40065       -0.45286
C         -1.85842       -1.05684       -0.39473
C         -4.02920       -2.01586       -0.11252
C         -3.14647       -0.62226        1.68034
N         -2.85504       -1.38963        0.48023
O         -1.89591       -1.37026       -1.57351
H         -0.44188        3.71656       -0.17860
H         -1.77184        3.59291       -1.31985
H         -0.14214        3.11721       -1.80072
H          0.20859       -1.17788       -0.23906
H         -0.48964       -0.58493        1.23900
H          1.40097        2.14615       -0.48100
H          2.10438        0.28833       -2.04210
H          3.86860       -1.38928       -2.34214
H          4.98963       -2.37677       -0.36721
H          4.32212       -1.65328        1.89792
H          2.57607        0.01792        2.19911
H          0.69816        1.21959        2.33353
H          0.28670        2.76039        1.62956
H          1.96568        2.36149        1.91964
H         -4.59286       -2.50457        0.67322
H         -3.86077        0.16714        1.47256
H         -3.72375       -2.74754       -0.84184
H         -2.25925       -0.16585        2.08664
H         -4.66539       -1.28275       -0.60065
H         -3.55934       -1.28606        2.43137
