38
../min.omega.0.chi1.270.phi1.60.log	Energy: -505591.7097872
N         -0.16470        1.37589        0.46456
C         -1.45561        2.36519       -1.44816
C         -0.20402        2.24920       -0.59789
C          1.15464        1.12579        1.08849
C          1.07604        1.07746        2.61479
C          1.89317       -0.04564        0.44519
C          2.64215        0.17930       -0.71605
C          3.32491       -0.85891       -1.33391
C          3.27653       -2.14724       -0.80427
C          2.54008       -2.38345        0.34824
C          1.85582       -1.33771        0.96810
C         -1.28252        0.53534        0.82961
O          0.76735        2.92926       -0.89753
C         -1.74944       -0.45307       -0.26246
C         -3.40496       -2.06802       -1.00911
C         -3.70450       -0.99343        1.19028
N         -2.86099       -1.19621        0.02348
O         -1.13328       -0.57392       -1.30883
H         -1.35554        1.68403       -2.28058
H         -1.49490        3.37936       -1.81956
H         -2.37809        2.13962       -0.92900
H         -1.00189       -0.04793        1.69179
H         -2.12519        1.14428        1.13735
H          1.71810        2.01063        0.85040
H          2.67703        1.16803       -1.13381
H          3.89480       -0.66489       -2.22506
H          3.80767       -2.95052       -1.28295
H          2.49750       -3.37218        0.76976
H          1.30356       -1.54738        1.86645
H          0.56137        0.21153        3.01392
H          0.57400        1.96535        2.98369
H          2.08185        1.06249        3.01935
H         -3.64453       -3.03403       -0.57913
H         -4.46009       -0.22929        1.02300
H         -2.67309       -2.19408       -1.78733
H         -3.12673       -0.72597        2.06213
H         -4.31087       -1.64501       -1.43534
H         -4.21136       -1.92331        1.41246
