38
../min.omega.180.chi1.165.phi1.150.log	Energy: -498824.3416108
N         -2.07360       -0.12969        0.17748
C         -3.80565        0.10448        1.08016
C         -3.04044        0.83213       -0.00996
C         -1.03523       -1.16598        0.37858
C         -0.72731       -1.84309       -0.95742
C          0.42563       -0.72320        0.41549
C          0.85769       -0.08468        1.58413
C          2.16847        0.34163        1.74520
C          3.10179        0.13986        0.72988
C          2.68790       -0.49245       -0.43431
C          1.36942       -0.92009       -0.59188
C         -1.13707        0.36192       -0.80777
O         -4.18047        0.80900       -0.45399
C          0.31213       -0.08793       -0.51319
C          2.64806        0.54693       -0.30163
C          0.94784        2.29840       -0.80606
N          1.25769        0.89899       -0.55983
O          0.62722       -1.24629       -0.29240
H         -3.75334       -1.09054        0.99185
H         -4.84735        0.41477        0.92165
H         -3.45546        0.43115        2.17487
H         -1.59355        1.19233       -1.38712
H         -0.31273        0.59054       -0.11336
H         -1.51008       -1.89266        1.04169
H          0.13651        0.06890        2.39408
H          2.47186        0.82899        2.67665
H          4.14110        0.46981        0.84993
H          3.40836       -0.66468       -1.24039
H          1.08465       -1.42832       -1.51609
H         -0.31332       -1.15170       -1.69993
H         -1.64684       -2.26215       -1.37275
H         -0.00438       -2.65297       -0.81165
H          3.27722        0.79034       -1.21037
H          1.16009        2.91890        0.14228
H          2.75540       -0.54042       -0.11440
H         -0.13746        2.49151       -1.11822
H          3.03383        1.11041        0.62470
H          1.60360        2.64146       -1.65322
