38
../min.omega.0.chi1.285.phi1.300.log	Energy: -505590.8776137
N         -0.14007        0.44612        0.16735
C         -1.10083        2.13656       -1.42141
C         -0.05824        1.69103       -0.41276
C          0.94592        0.11321        1.11723
C          0.56192       -0.95894        2.13760
C          2.25597       -0.21455        0.40459
C          3.38460        0.59101        0.59774
C          4.59110        0.28126       -0.01399
C          4.69429       -0.83664       -0.84001
C          3.58074       -1.63862       -1.04796
C          2.37111       -1.32851       -0.42613
C         -1.19666       -0.49135       -0.13937
O          0.84322        2.46137       -0.11312
C         -2.61465        0.03162        0.18216
C         -5.00972       -0.24957        0.06210
C         -3.57614       -2.05495       -0.77928
N         -3.67044       -0.67976       -0.31665
O         -2.77032        1.04282        0.84728
H         -1.55557        1.33090       -1.98317
H         -0.60911        2.81363       -2.10515
H         -1.87941        2.67111       -0.89521
H         -1.15681       -0.78006       -1.18399
H         -1.04574       -1.39413        0.42874
H          1.11094        1.02111        1.67458
H          3.30394        1.47102        1.20856
H          5.44650        0.91380        0.14331
H          5.62903       -1.07281       -1.31641
H          3.64771       -2.50197       -1.68615
H          1.51894       -1.96390       -0.59763
H          0.49729       -1.95599        1.71597
H         -0.37933       -0.71544        2.61975
H          1.33202       -0.99011        2.89958
H         -5.69906       -0.51083       -0.73153
H         -3.73953       -2.76249        0.03065
H         -5.01760        0.81661        0.20865
H         -2.61888       -2.26289       -1.22942
H         -5.33642       -0.73116        0.98012
H         -4.33502       -2.22375       -1.53258
