28
../min.c.105.o.300.log	Energy: -350351.2748855
N         -1.47973        0.32199        0.24754
O         -2.26902       -1.28852       -1.15306
C         -2.57533       -1.66328        1.18361
C         -2.17421       -0.82899       -0.02141
C         -0.47341        0.67109       -0.77802
C         -0.58514        2.14385       -1.17887
C          0.92078        0.24434       -0.32964
C          1.44422       -0.95403       -0.82817
C          2.69980       -1.40203       -0.44273
C          3.46935       -0.65036        0.44318
C          2.96050        0.53756        0.94981
C          1.69658        0.98220        0.56320
C         -2.01724        1.39987        1.06779
H         -1.70300       -2.26340        1.42185
H         -3.39124       -2.32424        0.92624
H         -2.82905       -1.08652        2.06127
H         -2.67625        0.99496        1.82256
H         -2.58364        2.11604        0.48500
H         -1.21793        1.91592        1.58190
H         -0.71853        0.09831       -1.65254
H          0.85833       -1.53824       -1.51561
H          3.08290       -2.32561       -0.83889
H          4.44625       -0.99101        0.73626
H          3.54379        1.12475        1.63677
H          1.32934        1.91088        0.96194
H         -0.36701        2.83471       -0.37473
H         -1.57895        2.35703       -1.55520
H          0.11991        2.34944       -1.97762
