28
../min.c.360.o.285.log	Energy: -350337.0704406
N         -1.33428       -0.29973        0.26415
O         -3.20639        0.99371        0.28909
C         -3.51940       -1.30683       -0.26212
C         -2.68886       -0.11041        0.17126
C         -0.44986        0.38331       -0.70413
C         -0.79429        1.87079       -0.80887
C          1.01530        0.16600       -0.33936
C          1.73232       -0.82363       -1.02137
C          3.07231       -1.05677       -0.74373
C          3.72883       -0.29734        0.22227
C          3.03931        0.71117        0.88123
C          1.69271        0.94094        0.60089
C         -0.70866       -1.03407        1.35636
H         -3.32100       -1.46575       -1.31852
H         -4.57304       -1.11195       -0.12154
H         -3.23223       -2.21328        0.25853
H         -1.48246       -1.55496        1.91198
H         -0.20564       -0.37392        2.05129
H         -0.00458       -1.77327        1.00238
H         -0.59983       -0.07089       -1.67996
H          1.23490       -1.41784       -1.76778
H          3.60295       -1.82677       -1.27495
H          4.76598       -0.47826        0.44040
H          3.53925        1.31722        1.61544
H          1.17711        1.72409        1.12543
H         -0.82866        2.33568        0.16655
H         -1.75544        2.02450       -1.27295
H         -0.04444        2.37496       -1.41262
