28
../min.c.315.o.75.log	Energy: -350347.1797988
N         -1.32671       -0.36025       -0.37633
O         -3.07401        1.09749       -0.35841
C         -3.49095       -1.06261        0.56594
C         -2.63572       -0.02613       -0.14351
C         -0.42904        0.77740       -0.08261
C         -0.78244        1.42445        1.25852
C          1.01995        0.30904        0.00700
C          1.97785        0.94761       -0.78877
C          3.32067        0.60581       -0.70581
C          3.72987       -0.42077        0.14264
C          2.78931       -1.06918        0.93111
C          1.44596       -0.69983        0.86969
C         -0.91959       -1.29734       -1.41541
H         -3.25200       -2.07657        0.26902
H         -4.54042       -0.86041        0.40529
H         -3.27222       -0.97232        1.62567
H         -1.70642       -2.02537       -1.57135
H         -0.02279       -1.82063       -1.12495
H         -0.74154       -0.78878       -2.35993
H         -0.49943        1.52189       -0.86844
H          1.67128        1.72734       -1.46357
H          4.04218        1.11819       -1.31706
H          4.76686       -0.70030        0.19380
H          3.09300       -1.85872        1.59522
H          0.72786       -1.21286        1.48451
H         -0.84011        0.67116        2.03802
H         -1.70905        1.97289        1.22942
H          0.00666        2.11565        1.53315
