28
../min.c.75.o.15.log	Energy: -350362.5943397
N         -1.44465        0.36389        0.17625
O         -2.05140       -1.41764       -1.10297
C         -3.44346       -0.95194        0.77841
C         -2.24402       -0.70905       -0.12235
C         -0.39233        0.76099       -0.78356
C         -0.44218        2.26489       -1.06284
C          0.96579        0.22262       -0.34471
C          1.20257       -1.15299       -0.44586
C          2.41530       -1.70151       -0.05303
C          3.42333       -0.88199        0.45110
C          3.20518        0.48530        0.54945
C          1.98583        1.03282        0.15183
C         -1.49886        1.06268        1.45388
H         -3.14045       -1.41657        1.71127
H         -4.10674       -1.62804        0.25990
H         -3.96491       -0.03180        1.01142
H         -1.88726        0.42235        2.23089
H         -2.11029        1.95873        1.40665
H         -0.49572        1.34399        1.74433
H         -0.65188        0.25629       -1.69927
H          0.42889       -1.78768       -0.83656
H          2.57569       -2.76107       -0.14336
H          4.36479       -1.30372        0.75496
H          3.97797        1.12906        0.93068
H          1.84917        2.09574        0.22846
H         -0.24323        2.87177       -0.18727
H         -1.42497        2.53049       -1.43615
H          0.28986        2.52330       -1.81981
