28
../min.c.105.o.225.log	Energy: -350347.7344772
N         -1.60550        0.22415        0.17422
O         -3.28931       -1.22898       -0.30703
C         -1.06682       -2.08004       -0.48171
C         -2.09094       -0.97664       -0.27502
C         -0.54236        0.88758       -0.61057
C         -0.65776        2.41065       -0.51505
C          0.83115        0.36047       -0.20746
C          1.82935        0.28374       -1.18537
C          3.11036       -0.14754       -0.86849
C          3.40857       -0.55934        0.42855
C          2.43205       -0.47609        1.41150
C          1.15769       -0.00453        1.09780
C         -2.23905        0.98670        1.24226
H         -0.25762       -1.81488       -1.14690
H         -1.57632       -2.95283       -0.86511
H         -0.63286       -2.30559        0.48470
H         -2.88153        0.31853        1.79837
H         -2.85192        1.80703        0.88739
H         -1.48648        1.37541        1.91417
H         -0.69504        0.63189       -1.65339
H          1.60353        0.56933       -2.19897
H          3.86324       -0.19726       -1.63490
H          4.39191       -0.92159        0.66873
H          2.65364       -0.77623        2.42010
H          0.41170        0.03811        1.86884
H         -0.46334        2.77987        0.48270
H         -1.63795        2.74279       -0.83426
H          0.07869        2.85850       -1.17343
