28
../min.c.15.o.60.log	Energy: -350351.8586935
N         -1.37325        0.03325        0.40478
O         -2.63364       -0.76691       -1.31265
C         -3.76994       -0.36523        0.74690
C         -2.53253       -0.46713       -0.12913
C         -0.46266        0.61004       -0.60738
C         -0.69147        2.11573       -0.75823
C          0.98399        0.23111       -0.30647
C          1.45953       -1.00268       -0.76498
C          2.76472       -1.40380       -0.51706
C          3.63373       -0.56617        0.17948
C          3.18286        0.67122        0.61802
C          1.86810        1.06696        0.37408
C         -0.78609       -0.47053        1.63969
H         -3.57471       -0.45181        1.80565
H         -4.50402       -1.09921        0.44419
H         -4.17741        0.62375        0.56304
H         -1.57096       -0.77295        2.31932
H         -0.21331        0.30533        2.12542
H         -0.14073       -1.32219        1.46842
H         -0.70534        0.14955       -1.54782
H          0.79598       -1.65127       -1.31045
H          3.10767       -2.35886       -0.87332
H          4.64713       -0.87255        0.36730
H          3.84745        1.33104        1.14691
H          1.54422        2.03041        0.72186
H         -0.56242        2.64627        0.17904
H         -1.70485        2.29592       -1.10071
H         -0.00823        2.53193       -1.49071
