28
../min.c.240.o.120.log	Energy: -350341.2793995
N         -1.54997       -0.32350       -0.45665
O         -3.05641        0.04707        1.20819
C         -0.95152       -0.86423        1.86643
C         -1.92726       -0.27684        0.86048
C         -0.57675        0.69664       -0.90217
C         -1.04790        2.10476       -0.53150
C          0.83324        0.32600       -0.45336
C          1.31546       -0.95211       -0.75746
C          2.60573       -1.33150       -0.41197
C          3.42881       -0.45280        0.28842
C          2.97060        0.82471        0.57954
C          1.68604        1.21377        0.20096
C         -2.31976       -1.02133       -1.47843
H         -0.75504       -1.88966        1.57373
H         -1.40095       -0.83934        2.84944
H         -0.00245       -0.34907        1.88933
H         -2.90904       -1.79880       -1.01097
H         -1.63687       -1.48216       -2.18175
H         -2.99918       -0.37185       -2.02612
H         -0.58426        0.63444       -1.98422
H          0.67856       -1.65093       -1.26795
H          2.95790       -2.31657       -0.66153
H          4.41947       -0.75311        0.57900
H          3.60352        1.51907        1.10269
H          1.35738        2.20845        0.43656
H         -1.04302        2.27088        0.54023
H         -2.06404        2.24375       -0.87956
H         -0.42103        2.86039       -0.99342
