28
../min.c.60.o.255.log	Energy: -350340.4894027
N         -1.33651       -0.07310        0.43975
O         -3.42641        0.51979       -0.23790
C         -2.86727       -1.78967       -0.45718
C         -2.57566       -0.34720       -0.07866
C         -0.45171        0.59706       -0.53715
C         -0.70637        2.10589       -0.56475
C          1.00259        0.19882       -0.30611
C          1.32933       -1.16200       -0.30417
C          2.63822       -1.58377       -0.11775
C          3.65289       -0.64940        0.08061
C          3.34286        0.70360        0.08336
C          2.02845        1.12380       -0.11777
C         -1.10846        0.18813        1.85513
H         -2.15021       -2.12969       -1.19792
H         -3.87094       -1.88020       -0.84599
H         -2.74562       -2.42161        0.41715
H         -1.63670       -0.55191        2.44594
H         -1.44366        1.17283        2.17179
H         -0.05291        0.08857        2.05885
H         -0.73273        0.20223       -1.50968
H          0.54991       -1.88967       -0.43837
H          2.86742       -2.63460       -0.12280
H          4.66681       -0.97430        0.23098
H          4.11656        1.43486        0.23527
H          1.81794        2.17595       -0.11593
H         -0.43327        2.57301        0.37526
H         -1.75685        2.29008       -0.73763
H         -0.13818        2.58635       -1.35541
