28
../min.c.90.o.90.log	Energy: -350339.0565900
N         -1.36804       -0.00144        0.47106
O         -2.30556       -1.99442       -0.10118
C         -3.30938       -0.04687       -1.04653
C         -2.26164       -0.77614       -0.22225
C         -0.44583        0.79010       -0.37115
C         -0.63755        2.29020       -0.13631
C          0.98542        0.28365       -0.22290
C          1.19127       -1.08708       -0.02971
C          2.47219       -1.61064        0.07766
C          3.58001       -0.76802        0.01331
C          3.39054        0.59429       -0.17371
C          2.10265        1.11384       -0.30066
C         -1.60356        0.45372        1.83522
H         -4.00385        0.41023       -0.34606
H         -3.85080       -0.74067       -1.67408
H         -2.89373        0.74809       -1.65180
H         -2.09150       -0.33734        2.39050
H         -2.22015        1.34769        1.88845
H         -0.65289        0.65283        2.31205
H         -0.72687        0.59376       -1.40087
H          0.34567       -1.74238        0.04962
H          2.60476       -2.66772        0.22365
H          4.57352       -1.16850        0.10895
H          4.23685        1.25609       -0.22385
H          1.98801        2.17208       -0.44564
H         -0.27400        2.60147        0.83563
H         -1.68824        2.54646       -0.20739
H         -0.11066        2.87102       -0.88508
