28
../min.c.30.o.165.log	Energy: -350356.1836694
N         -1.35717       -0.14592        0.45388
O         -3.21651       -1.45768        0.43111
C         -3.20821        0.38422       -1.08600
C         -2.58631       -0.51342       -0.02935
C         -0.49214        0.70762       -0.38845
C         -0.69272        2.18858       -0.05869
C          0.96716        0.28090       -0.26505
C          1.38192       -0.87825       -0.93057
C          2.70127       -1.30534       -0.86993
C          3.63128       -0.59767       -0.11131
C          3.23683        0.56093        0.54351
C          1.91528        0.99872        0.46248
C         -0.78243       -0.70677        1.66990
H         -3.40589        1.36091       -0.66568
H         -4.15056       -0.06607       -1.36329
H         -2.61445        0.50850       -1.97975
H         -1.58922       -1.08631        2.27813
H         -0.26256        0.06954        2.21444
H         -0.09172       -1.51442        1.46596
H         -0.75281        0.54576       -1.42027
H          0.66707       -1.44369       -1.50328
H          2.99953       -2.19514       -1.39488
H          4.65028       -0.93520       -0.05153
H          3.94855        1.12526        1.11904
H          1.64123        1.89908        0.97786
H         -0.53266        2.37883        0.99642
H         -1.69781        2.50842       -0.29217
H         -0.00821        2.81035       -0.62626
