28
../min.c.360.o.210.log	Energy: -350352.2888591
N         -1.34825        0.46070       -0.08866
O         -3.49803        1.20129       -0.18004
C         -3.16027       -0.93236        0.83374
C         -2.69781        0.31893        0.10612
C         -0.49537       -0.74207        0.02207
C         -0.74701       -1.70343       -1.14183
C          0.97991       -0.35457        0.04030
C          1.64941       -0.33635        1.26914
C          2.99637       -0.01032        1.34594
C          3.70476        0.31318        0.19057
C          3.05745        0.28311       -1.03695
C          1.70863       -0.06297       -1.11181
C         -0.68863        1.75818       -0.15945
H         -2.85966       -1.86712        0.39398
H         -4.23950       -0.89698        0.87288
H         -2.77874       -0.90035        1.84977
H         -1.45974        2.51356       -0.13448
H         -0.12959        1.87869       -1.07592
H         -0.02392        1.90105        0.68036
H         -0.69646       -1.24846        0.95617
H          1.11142       -0.57625        2.16958
H          3.49143       -0.00233        2.30054
H          4.74613        0.57372        0.24937
H          3.59467        0.52043       -1.93759
H          1.23559       -0.07558       -2.07516
H         -0.54577       -1.21864       -2.08793
H         -1.76772       -2.05356       -1.18807
H         -0.10080       -2.57133       -1.05952
