28
../min.c.30.o.120.log	Energy: -350341.4024697
N         -1.36876       -0.01479        0.44215
O         -2.63801       -1.80479       -0.16056
C         -3.66548        0.33964       -0.36057
C         -2.49578       -0.59035       -0.08503
C         -0.48771        0.69896       -0.50687
C         -0.69200        2.21286       -0.41441
C          0.96546        0.27852       -0.31082
C          1.34030       -1.01839       -0.67975
C          2.64834       -1.45638       -0.52699
C          3.61759       -0.59859       -0.01087
C          3.26016        0.69088        0.35825
C          1.94466        1.12703        0.20360
C         -0.80923       -0.40082        1.73113
H         -3.95028        0.78925        0.58465
H         -4.49353       -0.22239       -0.76810
H         -3.40771        1.14422       -1.03846
H         -0.13734       -1.24923        1.68192
H         -1.62304       -0.65057        2.40110
H         -0.27764        0.44315        2.14815
H         -0.76702        0.38645       -1.50780
H          0.59437       -1.68978       -1.06879
H          2.91272       -2.45827       -0.81433
H          4.63244       -0.93461        0.10416
H          3.99814        1.36244        0.75926
H          1.70059        2.13124        0.49256
H         -0.50814        2.57338        0.59157
H         -1.71144        2.47306       -0.66650
H         -0.03465        2.74329       -1.09595
