28
../min.c.105.o.15.log	Energy: -350357.9121750
N         -1.55643        0.28992        0.00696
O         -1.22998       -1.89034       -0.55721
C         -3.18944       -1.41379        0.71860
C         -1.88486       -1.04077        0.03454
C         -0.45723        0.74187       -0.87271
C         -0.57086        2.23893       -1.16952
C          0.89280        0.30411       -0.31350
C          1.60507       -0.69107       -0.99238
C          2.85418       -1.10481       -0.55113
C          3.40587       -0.55399        0.60386
C          2.70882        0.43133        1.28944
C          1.46503        0.86199        0.82877
C         -2.20619        1.28533        0.84989
H         -3.11345       -1.35183        1.79900
H         -3.40885       -2.43677        0.45120
H         -4.00068       -0.77261        0.39583
H         -2.82269        0.80794        1.59291
H         -2.83380        1.95968        0.27883
H         -1.47097        1.87018        1.38541
H         -0.59356        0.21638       -1.80712
H          1.16933       -1.15061       -1.85918
H          3.38489       -1.86909       -1.09033
H          4.36719       -0.88283        0.95627
H          3.12765        0.87037        2.17764
H          0.95160        1.63617        1.37162
H         -0.40309        2.86506       -0.30349
H         -1.54079        2.47698       -1.59049
H          0.18288        2.49949       -1.90437
