28
../min.c.15.o.225.log	Energy: -350350.7177266
N         -1.36153        0.03673        0.46408
O         -3.55459       -0.19908        1.02381
C         -2.94659       -0.87731       -1.18178
C         -2.66875       -0.26300        0.18000
C         -0.48878        0.48350       -0.64273
C         -0.73974        1.95481       -0.98107
C          0.97230        0.17256       -0.33368
C          1.47152       -1.09027       -0.67229
C          2.79173       -1.43102       -0.41400
C          3.65078       -0.50537        0.17531
C          3.17534        0.75904        0.49461
C          1.84716        1.09638        0.23608
C         -0.73302       -0.28330        1.73927
H         -2.84878       -0.17720       -2.00303
H         -3.96363       -1.24127       -1.16891
H         -2.26745       -1.70367       -1.35537
H         -1.51837       -0.52274        2.44118
H         -0.17860        0.55796        2.13206
H         -0.06639       -1.12937        1.64609
H         -0.72199       -0.09386       -1.52467
H          0.81868       -1.81277       -1.13098
H          3.15293       -2.40933       -0.67644
H          4.67460       -0.76675        0.37337
H          3.83048        1.48561        0.94081
H          1.50425        2.08121        0.49260
H         -0.59256        2.59294       -0.11787
H         -1.76515        2.09280       -1.30814
H         -0.08219        2.28578       -1.77812
