28
../min.c.75.o.75.log	Energy: -350346.3199163
N          1.55831        0.38972       -0.16344
O          1.25315       -1.86326       -0.06666
C          3.50260       -1.08948       -0.25522
C          1.99410       -0.90662       -0.25809
C          0.53328        0.61666        0.87777
C          0.62261        2.03868        1.43640
C         -0.84829        0.22031        0.36680
C         -1.40087       -0.98747        0.80786
C         -2.66396       -1.38986        0.39583
C         -3.40622       -0.58803       -0.46836
C         -2.87718        0.62018       -0.90089
C         -1.61387        1.02748       -0.47332
C          1.61914        1.33054       -1.27463
H          4.02568       -0.33756       -0.83282
H          3.77183       -2.07896       -0.59762
H          3.80704       -0.97897        0.78068
H          2.47005        1.09277       -1.90204
H          1.75230        2.33972       -0.91275
H          0.73002        1.28362       -1.89355
H          0.78592       -0.05885        1.68177
H         -0.82989       -1.62399        1.45508
H         -3.06666       -2.32441        0.74377
H         -4.38321       -0.89903       -0.79299
H         -3.44607        1.25464       -1.55738
H         -1.24511        1.98344       -0.79818
H          0.30276        2.79688        0.73340
H          1.64168        2.25744        1.73700
H         -0.01786        2.11700        2.30800
