28
../min.c.90.o.195.log	Energy: -350358.5011738
N         -1.57007        0.26921        0.25782
O         -3.28432       -1.21722        0.08385
C         -1.55528       -1.40991       -1.54943
C         -2.23158       -0.76591       -0.35071
C         -0.47651        0.95045       -0.46768
C         -0.49474        2.45728       -0.20058
C          0.86736        0.30680       -0.14111
C          1.98150        0.66142       -0.91021
C          3.23509        0.13117       -0.64086
C          3.39267       -0.81151        0.37377
C          2.29412       -1.18074        1.13769
C          1.04059       -0.62684        0.87960
C         -1.92392        0.76899        1.58016
H         -1.71818       -0.82950       -2.45207
H         -2.02344       -2.37361       -1.68858
H         -0.49270       -1.53762       -1.40834
H         -2.53217        0.02496        2.07124
H         -2.49077        1.69153        1.53147
H         -1.02791        0.93802        2.16186
H         -0.65688        0.82916       -1.52448
H          1.87237        1.36716       -1.71579
H          4.07966        0.42455       -1.23854
H          4.35972       -1.23829        0.57021
H          2.40177       -1.90412        1.92591
H          0.20263       -0.94188        1.46972
H         -0.24004        2.69912        0.82292
H         -1.47339        2.86651       -0.42535
H          0.22848        2.95012       -0.83953
