28
../min.c.315.o.60.log	Energy: -350350.5049502
N         -1.33462       -0.34397       -0.34947
O         -3.06696        1.12582       -0.21874
C         -3.52356       -1.10604        0.49162
C         -2.64002       -0.01523       -0.09019
C         -0.40950        0.79802       -0.18724
C         -0.72989        1.58880        1.08328
C          1.02800        0.30842       -0.04253
C          2.00511        0.84946       -0.88581
C          3.34125        0.49546       -0.75341
C          3.72427       -0.44484        0.19998
C          2.76410       -0.99841        1.03572
C          1.42714       -0.61949        0.91830
C         -0.95162       -1.40373       -1.27348
H         -3.18498       -2.10713        0.26343
H         -4.54546       -0.97154        0.16442
H         -3.49391       -0.98337        1.57011
H         -1.78932       -2.06668       -1.44016
H         -0.12606       -1.98151       -0.88620
H         -0.66347       -0.98672       -2.23439
H         -0.46900        1.45248       -1.05050
H          1.71946        1.56404       -1.63763
H          4.07770        0.93295       -1.40379
H          4.75612       -0.73244        0.29319
H          3.04728       -1.72206        1.77920
H          0.69414       -1.05752        1.57241
H         -0.87356        0.91198        1.91985
H         -1.60004        2.21242        0.98580
H          0.11750        2.22181        1.32310
