28
../min.c.75.o.210.log	Energy: -350355.4593935
N         -1.48208        0.23518        0.34719
O         -3.49228       -0.81302        0.15036
C         -1.87811       -1.29747       -1.53903
C         -2.38169       -0.56784       -0.30490
C         -0.44958        0.94413       -0.43872
C         -0.49543        2.45080       -0.17405
C          0.92429        0.32442       -0.20332
C          0.99357       -0.92793        0.41750
C          2.21385       -1.55073        0.63896
C          3.39837       -0.92568        0.25419
C          3.34422        0.31382       -0.36827
C          2.11506        0.92932       -0.60282
C         -1.53497        0.48407        1.78205
H         -0.81132       -1.45662       -1.53489
H         -2.14726       -0.76609       -2.44719
H         -2.39064       -2.24925       -1.56224
H         -2.06693       -0.32793        2.25551
H         -2.04788        1.40847        2.02527
H         -0.52727        0.52770        2.17098
H         -0.70337        0.81060       -1.48047
H          0.09980       -1.42207        0.73593
H          2.24319       -2.51276        1.11867
H          4.34604       -1.40074        0.43402
H          4.25028        0.80417       -0.67634
H          2.10119        1.88646       -1.09175
H         -0.15872        2.69887        0.82544
H         -1.50871        2.81566       -0.29896
H          0.13691        2.97991       -0.87677
