28
../min.c.300.o.15.log	Energy: -350347.8051410
N          1.37461       -0.03721        0.66151
O          2.83629        0.79628       -0.87055
C          3.10312       -1.50576       -0.30158
C          2.40415       -0.15813       -0.23559
C          0.35343        1.00779        0.43459
C          0.82003        2.01219       -0.62166
C         -0.99463        0.37761        0.09921
C         -2.11363        0.75731        0.84906
C         -3.36914        0.23114        0.57820
C         -3.53067       -0.70306       -0.44282
C         -2.43187       -1.07897       -1.20313
C         -1.17181       -0.54914       -0.92703
C          1.14253       -0.99304        1.73673
H          3.81282       -1.58844        0.51582
H          3.65605       -1.54812       -1.22895
H          2.41540       -2.33987       -0.24149
H          2.07862       -1.38602        2.10646
H          0.50235       -1.81884        1.44212
H          0.65977       -0.47018        2.55258
H          0.23452        1.54355        1.37068
H         -2.00037        1.47095        1.64658
H         -4.21568        0.53517        1.16778
H         -4.50080       -1.11830       -0.64856
H         -2.54544       -1.79073       -2.00121
H         -0.32891       -0.85786       -1.51975
H          0.93809        1.58865       -1.60125
H          1.70441        2.54273       -0.32916
H          0.00745        2.73990       -0.69381
