28
../min.c.75.o.255.log	Energy: -350340.0671449
N         -1.35153       -0.02559        0.48082
O         -3.32993        0.37060       -0.57148
C         -2.66435       -1.91539       -0.41168
C         -2.49308       -0.42597       -0.16409
C         -0.45536        0.67482       -0.46397
C         -0.68649        2.18712       -0.42239
C          0.98940        0.22709       -0.26607
C          1.25218       -1.14169       -0.13967
C          2.54903       -1.61028        0.01756
C          3.61585       -0.71497        0.06211
C          3.36933        0.64588       -0.05654
C          2.06652        1.11143       -0.23161
C         -1.33465        0.39760        1.87517
H         -1.88854       -2.25599       -1.09070
H         -3.63512       -2.11443       -0.84166
H         -2.54119       -2.46358        0.51663
H         -1.81586       -0.35733        2.48674
H         -1.83868        1.34541        2.04372
H         -0.30429        0.47824        2.19248
H         -0.74774        0.33814       -1.45312
H          0.43562       -1.83785       -0.14701
H          2.72828       -2.66667        0.11133
H          4.62072       -1.07497        0.19227
H          4.18356        1.34750       -0.02082
H          1.90452        2.16843       -0.32498
H         -0.35158        2.62020        0.51391
H         -1.74268        2.38611       -0.53866
H         -0.15712        2.68729       -1.22703
