28
../min.c.90.o.120.log	Energy: -350347.1423290
N         -1.40575        0.05691        0.46100
O         -2.61810       -1.83742        0.11442
C         -2.88042       -0.10366       -1.50409
C         -2.25397       -0.73304       -0.27102
C         -0.44039        0.88573       -0.29229
C         -0.55824        2.36029        0.10009
C          0.96626        0.30605       -0.18169
C          1.10544       -1.06512        0.06145
C          2.35992       -1.65454        0.14162
C          3.50758       -0.87963       -0.00919
C          3.38404        0.47732       -0.27409
C          2.12256        1.06762       -0.34436
C         -1.63926        0.38763        1.86088
H         -2.99138        0.96597       -1.38958
H         -3.85100       -0.56202       -1.63554
H         -2.30868       -0.29840       -2.40573
H         -2.20830       -0.41175        2.31317
H         -2.18863        1.31693        1.96755
H         -0.69679        0.47036        2.38772
H         -0.71353        0.81982       -1.33565
H          0.23539       -1.67457        0.20422
H          2.44139       -2.70889        0.33646
H          4.48104       -1.33115        0.06132
H          4.26174        1.08530       -0.40290
H          2.05900        2.12322       -0.53429
H         -0.18212        2.55102        1.09784
H         -1.59418        2.67667        0.05509
H          0.00006        2.98661       -0.58592
