28
../min.c.120.o.315.log	Energy: -350354.8608641
N         -1.54811        0.26175        0.16753
O         -1.63526       -1.32615       -1.46015
C         -2.77318       -1.83370        0.57500
C         -1.98600       -0.92703       -0.35630
C         -0.45619        0.88861       -0.60777
C         -0.48634        2.41222       -0.46670
C          0.89618        0.32486       -0.18328
C          1.82922        0.00900       -1.17740
C          3.09294       -0.46166       -0.84950
C          3.43624       -0.67316        0.48444
C          2.51405       -0.38170        1.48011
C          1.25890        0.12740        1.14824
C         -2.39140        1.12992        0.97915
H         -2.34085       -1.82282        1.56784
H         -2.73849       -2.83298        0.16719
H         -3.81369       -1.53350        0.65219
H         -3.07477        0.52661        1.56109
H         -2.98264        1.81436        0.38177
H         -1.79599        1.69619        1.67799
H         -0.60823        0.64873       -1.64669
H          1.56136        0.13320       -2.21187
H          3.79685       -0.69213       -1.62932
H          4.40686       -1.05933        0.73950
H          2.76654       -0.54132        2.51342
H          0.55484        0.34375        1.93206
H         -0.28959        2.74618        0.54396
H         -1.42581        2.83256       -0.80413
H          0.29592        2.82888       -1.09249
