28
../min.c.75.o.120.log	Energy: -350348.3774198
N         -1.37916        0.03060        0.45153
O         -2.68344       -1.81412        0.17910
C         -3.16996        0.04844       -1.23103
C         -2.34956       -0.69471       -0.19002
C         -0.43772        0.82455       -0.36680
C         -0.58860        2.32066       -0.08208
C          0.98141        0.28167       -0.23136
C          1.16783       -1.10535       -0.23088
C          2.43974       -1.65685       -0.16067
C          3.55574       -0.82978       -0.05310
C          3.38556        0.54783       -0.04922
C          2.10751        1.09840       -0.13990
C         -1.36208        0.23109        1.89482
H         -3.97162        0.52344       -0.67224
H         -3.61522       -0.64932       -1.92739
H         -2.64583        0.82029       -1.77113
H         -1.89802       -0.57941        2.36660
H         -1.82951        1.17234        2.16747
H         -0.34318        0.22418        2.26147
H         -0.71165        0.66058       -1.39878
H          0.31459       -1.75586       -0.27855
H          2.55805       -2.72558       -0.16724
H          4.54107       -1.25451        0.01769
H          4.23879        1.19769        0.02954
H          2.00723        2.16743       -0.13245
H         -0.23151        2.58454        0.90660
H         -1.63316        2.60238       -0.15100
H         -0.03768        2.91479       -0.80285
