28
../min.c.300.o.315.log	Energy: -350353.2625473
N         -1.39074        0.67122       -0.07106
O         -1.96875       -1.52767        0.02483
C         -3.58385       -0.05802       -0.93739
C         -2.24227       -0.37850       -0.29983
C         -0.39362        0.47546        1.00307
C         -0.97488       -0.35801        2.14747
C          0.96660        0.11517        0.41408
C          2.02053        1.02377        0.56336
C          3.26286        0.77809       -0.00407
C          3.49999       -0.41923       -0.67693
C          2.46924       -1.33844       -0.81608
C          1.21150       -1.07100       -0.27628
C         -1.13350        1.71367       -1.05629
H         -3.96106        0.90416       -0.61560
H         -4.27619       -0.84047       -0.66121
H         -3.50190       -0.05208       -2.02013
H         -2.02123        1.90238       -1.64338
H         -0.32369        1.44093       -1.72436
H         -0.86629        2.63185       -0.54724
H         -0.27389        1.47371        1.41408
H          1.85949        1.94345        1.09899
H          4.05288        1.50014        0.10376
H          4.46878       -0.61956       -1.09864
H          2.63591       -2.26338       -1.33883
H          0.41684       -1.78293       -0.39432
H         -0.93578       -1.41867        1.98278
H         -2.00066       -0.06382        2.33178
H         -0.40379       -0.13069        3.04448
