28
../min.c.345.o.240.log	Energy: -350345.8387864
N          1.33794        0.47791       -0.07334
O          3.50076        1.11772        0.22865
C          3.15680       -1.02931       -0.75432
C          2.69071        0.25652       -0.09219
C          0.48798       -0.70224        0.19340
C          0.79610       -1.30239        1.56711
C         -0.98889       -0.33554        0.08721
C         -1.71443       -0.80208       -1.01485
C         -3.06080       -0.49960       -1.16578
C         -3.72067        0.25528       -0.19842
C         -3.02435        0.68531        0.92270
C         -1.66397        0.40817        1.05398
C          0.71483        1.63783       -0.69775
H          2.82063       -1.93612       -0.27296
H          4.23715       -1.02785       -0.77289
H          2.78037       -1.03407       -1.77255
H          1.50000        2.33768       -0.94947
H          0.02596        2.13684       -0.03403
H          0.18947        1.35884       -1.60335
H          0.66174       -1.46161       -0.56160
H         -1.21857       -1.39119       -1.76620
H         -3.59534       -0.85380       -2.02908
H         -4.76496        0.48501       -0.31031
H         -3.52497        1.25655        1.68377
H         -1.13805        0.77615        1.91599
H          0.61781       -0.57891        2.35234
H          1.82920       -1.61766        1.65228
H          0.16793       -2.16861        1.74560
