28
../min.c.75.o.135.log	Energy: -350352.9563505
N         -1.38648        0.06001        0.46994
O         -2.88111       -1.65294        0.36845
C         -2.95231       -0.08116       -1.42564
C         -2.37534       -0.66272       -0.14583
C         -0.44267        0.82056       -0.37689
C         -0.56660        2.32482       -0.12382
C          0.97168        0.26687       -0.23567
C          1.14819       -1.12144       -0.24071
C          2.41465       -1.68252       -0.15248
C          3.53534       -0.86390       -0.02888
C          3.37391        0.51461       -0.00953
C          2.10284        1.07504       -0.13187
C         -1.35720        0.30105        1.90681
H         -2.97123        0.99938       -1.40085
H         -3.96016       -0.46183       -1.51427
H         -2.40780       -0.39773       -2.30928
H         -1.92262       -0.47511        2.39921
H         -1.79082        1.26582        2.14872
H         -0.33782        0.26986        2.27072
H         -0.73013        0.64583       -1.40125
H          0.29181       -1.76690       -0.30146
H          2.52592       -2.75197       -0.16378
H          4.51614       -1.29638        0.05581
H          4.23023        1.15780        0.08796
H          2.01064        2.14455       -0.12266
H         -0.18986        2.60799        0.85194
H         -1.60689        2.62392       -0.18237
H         -0.01817        2.89094       -0.86857
