28
../min.c.300.o.285.log	Energy: -350346.7769468
N          1.39808       -0.64332       -0.28056
O          1.82515        1.58884       -0.16454
C          3.72011        0.15597       -0.38884
C          2.22925        0.44537       -0.33768
C          0.42839       -0.65782        0.83560
C          0.99119        0.06401        2.06214
C         -0.94961       -0.21303        0.35576
C         -2.00911       -1.12411        0.43318
C         -3.28552       -0.77498        0.01513
C         -3.53738        0.50809       -0.46682
C         -2.49629        1.42263       -0.54753
C         -1.21235        1.06381       -0.13831
C          1.12247       -1.49264       -1.43219
H          4.02060       -0.07221        0.62886
H          4.26786        1.02282       -0.73123
H          3.95874       -0.70545       -1.00028
H          1.99134       -1.53060       -2.07809
H          0.27956       -1.12775       -2.00980
H          0.90575       -2.50025       -1.09710
H          0.34473       -1.70615        1.10405
H         -1.83326       -2.11521        0.81529
H         -4.08433       -1.49293        0.07626
H         -4.52859        0.78143       -0.78231
H         -2.67459        2.41466       -0.92259
H         -0.41409        1.77444       -0.21162
H          1.00161        1.13569        1.95550
H          1.99693       -0.28498        2.27149
H          0.37311       -0.18479        2.91916
