28
../min.c.30.o.0.log	Energy: -350361.6179143
N         -1.36606       -0.01576        0.31757
O         -2.98613        0.30373       -1.24822
C         -3.49668       -1.25082        0.48875
C         -2.60255       -0.25118       -0.22560
C         -0.40787        0.82643       -0.43003
C         -0.58936        2.30593       -0.08317
C          1.01485        0.30393       -0.25746
C          1.37657       -0.87616       -0.91710
C          2.65769       -1.39722       -0.80141
C          3.61440       -0.73763       -0.03246
C          3.27488        0.44390        0.61210
C          1.98436        0.96019        0.49939
C         -0.89195       -0.67567        1.52724
H         -2.98937       -2.19228        0.66326
H         -4.36142       -1.41656       -0.13617
H         -3.82720       -0.86231        1.44611
H         -1.71282       -0.87018        2.20072
H         -0.20223       -0.02579        2.04421
H         -0.38194       -1.60962        1.31860
H         -0.66905        0.71101       -1.47134
H          0.64601       -1.38734       -1.52006
H          2.91349       -2.30700       -1.31472
H          4.60894       -1.13695        0.05401
H          4.00680        0.96697        1.20133
H          1.74818        1.87715        1.00565
H         -0.44690        2.49632        0.97598
H         -1.59585        2.60526       -0.34576
H          0.10879        2.92159       -0.64060
