28
../min.c.105.o.345.log	Energy: -350359.8573876
N          1.47542        0.31558       -0.13434
O          1.70636       -1.73380        0.82749
C          3.17900       -1.25352       -0.98772
C          2.06738       -0.91453       -0.00873
C          0.42399        0.65955        0.84674
C          0.53774        2.12161        1.28451
C         -0.94956        0.24308        0.33020
C         -1.46718       -0.99316        0.73316
C         -2.70633       -1.43038        0.28662
C         -3.46145       -0.63404       -0.57206
C         -2.95794        0.59203       -0.98434
C         -1.71319        1.02861       -0.53191
C          2.05464        1.39867       -0.91856
H          2.82728       -1.19239       -2.01129
H          3.49661       -2.26456       -0.78136
H          4.02722       -0.58707       -0.87822
H          2.60802        1.00537       -1.75593
H          2.71970        2.02642       -0.33524
H          1.26729        2.01396       -1.32903
H          0.62708        0.05601        1.71585
H         -0.88267       -1.61745        1.38230
H         -3.08396       -2.38417        0.60944
H         -4.42403       -0.96801       -0.91620
H         -3.53089        1.21527       -1.64793
H         -1.35265        1.98838       -0.85716
H          0.33280        2.83590        0.49855
H          1.52620        2.32260        1.68142
H         -0.17939        2.30344        2.07777
