28
../min.c.315.o.360.log	Energy: -350349.1758234
N         -1.35520       -0.30577       -0.35575
O         -2.91567        1.15081        0.43272
C         -3.62101       -1.11305        0.16490
C         -2.59042        0.00352        0.15213
C         -0.36730        0.77926       -0.53766
C         -0.63652        1.93542        0.42826
C          1.03447        0.29471       -0.18103
C          2.07954        0.56134       -1.07285
C          3.38515        0.19523       -0.77581
C          3.66779       -0.49244        0.40247
C          2.63948       -0.77230        1.29186
C          1.33427       -0.37355        1.00516
C         -1.01505       -1.62793       -0.86543
H         -3.95354       -1.29415       -0.85207
H         -4.46547       -0.77847        0.74912
H         -3.24371       -2.04397        0.56966
H         -1.83931       -2.06429       -1.41301
H         -0.72009       -2.31062       -0.07613
H         -0.18460       -1.53485       -1.54818
H         -0.38311        1.11512       -1.56872
H          1.87088        1.07235       -1.99679
H          4.17538        0.42068       -1.46972
H          4.67537       -0.79487        0.62461
H          2.84485       -1.29618        2.20831
H          0.54834       -0.59553        1.70523
H         -0.84288        1.58062        1.42499
H         -1.41670        2.60107        0.11801
H          0.28392        2.51575        0.48121
