28
../min.c.300.o.60.log	Energy: -350347.4113810
N          1.34283       -0.20355        0.53386
O          3.11109        1.04067       -0.17577
C          3.24581       -1.30611       -0.58658
C          2.57423       -0.05325       -0.04962
C          0.37946        0.88689        0.27081
C          0.72191        1.62168       -1.02727
C         -1.02447        0.32591        0.06781
C         -2.09723        0.96864        0.69604
C         -3.40343        0.54497        0.49351
C         -3.66101       -0.57575       -0.29338
C         -2.60509       -1.23325       -0.90940
C         -1.29781       -0.77934       -0.73673
C          1.11531       -1.04531        1.70144
H          2.88584       -2.21789       -0.13065
H          4.31861       -1.22790       -0.47605
H          3.01843       -1.35487       -1.64773
H          1.89632       -1.78815        1.78378
H          0.16298       -1.55148        1.62763
H          1.12489       -0.44847        2.61006
H          0.36324        1.58843        1.09964
H         -1.90889        1.81791        1.32967
H         -4.21461        1.06329        0.97322
H         -4.67004       -0.92098       -0.43041
H         -2.79055       -2.09600       -1.52415
H         -0.48832       -1.30008       -1.21606
H          0.93216        0.91729       -1.82441
H          1.54821        2.30069       -0.93381
H         -0.15296        2.18742       -1.33145
