28
../min.c.45.o.135.log	Energy: -350351.6680507
N         -1.34958       -0.11342        0.42220
O         -2.99044       -1.67858        0.23185
C         -3.35774        0.39079       -0.89825
C         -2.52376       -0.59455       -0.09662
C         -0.46777        0.71012       -0.43251
C         -0.67938        2.20194       -0.16439
C          0.98520        0.26860       -0.28806
C          1.34005       -1.01212       -0.72672
C          2.64589       -1.46936       -0.61944
C          3.63426       -0.64483       -0.08533
C          3.29805        0.63073        0.34673
C          1.98183        1.08122        0.25030
C         -0.92078       -0.37397        1.79034
H         -3.74652        1.11852       -0.19433
H         -4.18505       -0.13900       -1.34879
H         -2.81786        0.92394       -1.66742
H         -1.76624       -0.74523        2.35086
H         -0.57625        0.54807        2.24152
H         -0.12467       -1.10590        1.84585
H         -0.74163        0.50881       -1.45890
H          0.58293       -1.65800       -1.13604
H          2.89430       -2.45955       -0.95713
H          4.64793       -0.99476       -0.00783
H          4.05094        1.27663        0.76181
H          1.75260        2.07074        0.59609
H         -0.46963        2.45585        0.86816
H         -1.70485        2.48106       -0.36357
H         -0.04058        2.80998       -0.79677
