28
../min.c.360.o.30.log	Energy: -350358.2085305
N          1.35495       -0.20693       -0.28811
O          2.97554        0.58616        1.09865
C          3.65146       -1.09039       -0.45910
C          2.63165       -0.18471        0.21078
C          0.44043        0.77752        0.32901
C          0.69328        2.18302       -0.22129
C         -1.01028        0.33029        0.17952
C         -1.59287       -0.40203        1.22014
C         -2.90998       -0.83301        1.14239
C         -3.68227       -0.52392        0.02465
C         -3.12696        0.22909       -1.00070
C         -1.80226        0.65732       -0.92015
C          0.76607       -1.38630       -0.90930
H          3.50391       -2.12904       -0.18219
H          4.63117       -0.78211       -0.12528
H          3.59288       -1.01400       -1.53804
H          1.53931       -1.97536       -1.37880
H          0.06832       -1.09911       -1.67881
H          0.24959       -2.01312       -0.19241
H          0.65921        0.80000        1.38651
H         -1.00695       -0.63998        2.09076
H         -3.33610       -1.40053        1.95048
H         -4.70347       -0.85480       -0.03626
H         -3.71747        0.48712       -1.86169
H         -1.39477        1.23901       -1.72622
H          0.57872        2.21642       -1.29924
H          1.69919        2.49502        0.02186
H         -0.00214        2.88849        0.22121
