28
../min.c.45.o.285.log	Energy: -350347.2556546
N         -1.33868       -0.13637        0.38018
O         -3.20998        0.67293       -0.63059
C         -3.23606       -1.63047       -0.00771
C         -2.64391       -0.23119       -0.02815
C         -0.45314        0.59906       -0.54787
C         -0.67991        2.10899       -0.44353
C          1.00406        0.20791       -0.32315
C          1.42239       -1.06589       -0.72445
C          2.73677       -1.47563       -0.55046
C          3.66569       -0.61714        0.03445
C          3.26538        0.65032        0.43452
C          1.94406        1.05894        0.25613
C         -0.93595       -0.22521        1.77786
H         -2.83905       -2.12743       -0.88724
H         -4.31417       -1.59525       -0.07992
H         -2.93530       -2.20666        0.85844
H         -1.69169       -0.76631        2.33469
H         -0.83473        0.75651        2.23102
H          0.00045       -0.75397        1.87448
H         -0.73182        0.28139       -1.54438
H          0.71039       -1.73602       -1.17375
H          3.03830       -2.45739       -0.86984
H          4.68474       -0.93274        0.16894
H          3.97335        1.32391        0.88338
H          1.66389        2.04488        0.57205
H         -0.53816        2.46071        0.57307
H         -1.68519        2.35116       -0.74226
H          0.01337        2.65023       -1.08103
