28
../min.c.135.o.300.log	Energy: -350352.0041972
N         -1.62087        0.23656        0.15191
O         -1.42474       -1.30038       -1.51474
C         -2.34431       -2.07674        0.54583
C         -1.82724       -1.00275       -0.39661
C         -0.53182        0.97238       -0.52549
C         -0.55877        2.45723       -0.15578
C          0.82599        0.38597       -0.15197
C          1.76768        0.18347       -1.16726
C          3.04401       -0.28012       -0.87813
C          3.39202       -0.59871        0.43252
C          2.46197       -0.42030        1.44739
C          1.19027        0.07280        1.15676
C         -2.68318        1.01553        0.77503
H         -1.46109       -2.51050        1.00395
H         -2.85518       -2.84915       -0.01229
H         -2.98179       -1.70722        1.33621
H         -3.41023        0.34871        1.21684
H         -3.20852        1.63828        0.05847
H         -2.29272        1.63797        1.56482
H         -0.66059        0.88616       -1.59357
H          1.49758        0.39255       -2.18713
H          3.75423       -0.42159       -1.67328
H          4.37371       -0.97638        0.65613
H          2.71835       -0.66212        2.46363
H          0.47851        0.20153        1.95295
H         -0.41287        2.61751        0.90574
H         -1.47440        2.94640       -0.46433
H          0.25928        2.95233       -0.66741
