28
../min.c.30.o.105.log	Energy: -350338.8064053
N         -1.40977        0.17710        0.49752
O         -2.14228       -1.72367       -0.51682
C         -3.79757       -0.06221       -0.07651
C         -2.38664       -0.62477       -0.03359
C         -0.52065        0.70968       -0.55707
C         -0.69187        2.22299       -0.70790
C          0.91992        0.26843       -0.31844
C          1.24635       -1.07825       -0.51464
C          2.54031       -1.53790       -0.31377
C          3.54283       -0.65490        0.08253
C          3.23488        0.68500        0.27383
C          1.93339        1.14288        0.07098
C         -0.84192       -0.03561        1.82262
H         -4.09646        0.27354        0.91108
H         -4.48914       -0.80380       -0.44910
H         -3.80789        0.80927       -0.72412
H         -0.18987       -0.90002        1.87908
H         -1.64931       -0.16447        2.53607
H         -0.28512        0.84428        2.10995
H         -0.82548        0.25687       -1.49131
H          0.47269       -1.76511       -0.80717
H          2.76722       -2.57760       -0.46876
H          4.54685       -1.00789        0.23667
H          4.00049        1.37725        0.57615
H          1.72627        2.18587        0.22040
H         -0.47790        2.74702        0.21711
H         -1.71730        2.44943       -0.97763
H         -0.04261        2.61302       -1.48482
