28
../min.c.30.o.300.log	Energy: -350349.6391421
N         -1.34173       -0.19329        0.29884
O         -3.21075        0.77911       -0.56114
C         -3.38015       -1.52042        0.05345
C         -2.67834       -0.17393       -0.00522
C         -0.44740        0.61478       -0.55762
C         -0.68248        2.11132       -0.34013
C          1.01096        0.23635       -0.31911
C          1.51281       -0.91170       -0.94258
C          2.83097       -1.30626       -0.76206
C          3.68228       -0.55387        0.04488
C          3.20175        0.59488        0.65827
C          1.87575        0.98647        0.47643
C         -0.82700       -0.64398        1.58550
H         -3.17221       -1.99159       -0.90177
H         -4.44963       -1.39075        0.14790
H         -3.01440       -2.17508        0.83237
H         -1.63318       -1.06962        2.16805
H         -0.42482        0.18740        2.15324
H         -0.05369       -1.39068        1.47255
H         -0.69677        0.37073       -1.58233
H          0.86257       -1.49802       -1.56842
H          3.19658       -2.19203       -1.25043
H          4.70465       -0.85666        0.18330
H          3.85054        1.18897        1.27674
H          1.53249        1.88019        0.96039
H         -0.62969        2.36333        0.71431
H         -1.65683        2.39479       -0.69648
H          0.06775        2.69737       -0.86310
