28
../min.c.285.o.90.log	Energy: -350338.9307105
N         -1.36118        0.01143        0.65225
O         -3.31834       -0.67465       -0.28432
C         -2.66200        1.57174       -0.75045
C         -2.48374        0.20513       -0.11043
C         -0.39505       -0.96527        0.10547
C         -0.82020       -1.43880       -1.28637
C          0.99968       -0.35296        0.02364
C          2.10683       -1.18474        0.22602
C          3.40011       -0.68480        0.15652
C          3.61646        0.65118       -0.17384
C          2.52779        1.48566       -0.38637
C          1.22939        0.99091       -0.26750
C         -1.31725        0.28363        2.08318
H         -2.49248        2.35892       -0.02295
H         -3.65178        1.66182       -1.17439
H         -1.92025        1.69448       -1.53329
H         -1.91414        1.15934        2.31121
H         -0.29534        0.48608        2.37467
H         -1.69685       -0.55093        2.66903
H         -0.34947       -1.83344        0.75827
H          1.95350       -2.22235        0.46922
H          4.23619       -1.33672        0.33752
H          4.61806        1.03555       -0.24635
H          2.68117        2.52256       -0.62741
H          0.39598        1.65431       -0.40064
H         -0.95009       -0.60681       -1.96963
H         -1.72637       -2.02099       -1.26233
H         -0.02526       -2.05481       -1.69335
