28
../min.c.285.o.345.log	Energy: -350357.4371237
N         -1.43386        0.66783       -0.00120
O         -1.95112       -1.53352        0.25359
C         -3.21301       -0.34069       -1.38321
C         -2.15695       -0.45867       -0.29701
C         -0.39177        0.55093        1.04125
C         -0.91798       -0.20754        2.26192
C          0.94486        0.15416        0.42245
C          1.94494        1.12700        0.31284
C          3.17787        0.82621       -0.25087
C          3.42342       -0.44845       -0.75558
C          2.44863       -1.42913       -0.63394
C          1.22007       -1.12977       -0.04587
C         -1.40291        1.84068       -0.86550
H         -3.92888        0.44379       -1.16604
H         -3.72796       -1.28773       -1.44458
H         -2.75417       -0.12531       -2.34215
H         -2.36842        2.01810       -1.31228
H         -0.66176        1.74815       -1.65400
H         -1.15489        2.70810       -0.26774
H         -0.26109        1.57218        1.38139
H          1.76621        2.12046        0.68659
H          3.93462        1.58756       -0.31949
H          4.37157       -0.67689       -1.20876
H          2.63365       -2.42411       -0.99762
H          0.47097       -1.89355        0.03844
H         -0.84074       -1.27569        2.18338
H         -1.95293        0.05638        2.43554
H         -0.34327        0.11347        3.12810
