28
../min.c.105.o.45.log	Energy: -350350.9188808
N         -1.61956        0.28647        0.01799
O         -0.86926       -1.76974       -0.60445
C         -3.18792       -1.59474       -0.06828
C         -1.76649       -1.06512       -0.15804
C         -0.49687        0.94748       -0.68125
C         -0.58184        2.46915       -0.54162
C          0.83723        0.36404       -0.22656
C          1.80765        0.08621       -1.19593
C          3.05712       -0.40375       -0.83895
C          3.35929       -0.63934        0.49984
C          2.41368       -0.34879        1.47359
C          1.16766        0.16308        1.11281
C         -2.28912        1.02583        1.08035
H         -3.51571       -1.75717        0.95383
H         -3.21429       -2.54414       -0.58241
H         -3.87272       -0.89835       -0.53571
H         -3.02439        0.39272        1.55598
H         -2.80714        1.89638        0.70159
H         -1.59455        1.34373        1.84802
H         -0.60910        0.70371       -1.73024
H          1.57552        0.23452       -2.23620
H          3.78401       -0.62128       -1.60136
H          4.31975       -1.03569        0.77703
H          2.63798       -0.51790        2.51191
H          0.44998        0.37034        1.88555
H         -0.43839        2.80463        0.47715
H         -1.52897        2.84501       -0.91123
H          0.20678        2.91176       -1.13996
