28
../min.c.360.o.90.log	Energy: -350340.5068336
N         -1.35185       -0.04275        0.47529
O         -2.65476       -1.22091       -0.97135
C         -3.79716        0.19096        0.57650
C         -2.56119       -0.47696       -0.00254
C         -0.49688        0.43487       -0.63251
C         -0.81432        1.89023       -0.98373
C          0.97585        0.19309       -0.31704
C          1.55752       -1.01090       -0.73016
C          2.89194       -1.28819       -0.46847
C          3.68310       -0.35398        0.19722
C          3.12652        0.85622        0.58758
C          1.78363        1.12833        0.32814
C         -0.69617       -0.63733        1.63293
H         -3.74595        0.26988        1.65671
H         -4.69188       -0.33690        0.27860
H         -3.82381        1.20136        0.18131
H         -1.45484       -0.87873        2.37149
H         -0.01632        0.06829        2.08084
H         -0.15951       -1.54849        1.39493
H         -0.71130       -0.16569       -1.50228
H          0.95416       -1.73589       -1.24801
H          3.31660       -2.22307       -0.78822
H          4.71823       -0.56512        0.39730
H          3.73005        1.59022        1.09126
H          1.37532        2.07189        0.64074
H         -0.70833        2.54436       -0.12586
H         -1.83721        1.97542       -1.33681
H         -0.16127        2.24099       -1.77564
