28
../min.c.0.o.300.log	Energy: -350341.8944794
N         -1.34381       -0.27445        0.24685
O         -3.22320        0.99386        0.05280
C         -3.50659       -1.36588       -0.16075
C         -2.69982       -0.11117        0.12881
C         -0.44621        0.49149       -0.64420
C         -0.74336        1.99080       -0.56693
C          1.01443        0.20512       -0.31028
C          1.70298       -0.73554       -1.08466
C          3.04345       -1.01219       -0.85111
C          3.72335       -0.36073        0.17520
C          3.06060        0.59519        0.93267
C          1.71687        0.87741        0.68878
C         -0.73265       -1.13644        1.25035
H         -3.39634       -1.55010       -1.22550
H         -4.55300       -1.20476        0.05793
H         -3.14698       -2.24251        0.36156
H         -1.51576       -1.64377        1.80140
H         -0.16352       -0.56046        1.96651
H         -0.08695       -1.88914        0.81807
H         -0.61483        0.15327       -1.66189
H          1.18624       -1.24914       -1.87646
H          3.55397       -1.73806       -1.45870
H          4.75926       -0.57944        0.36246
H          3.57962        1.12070        1.71418
H          1.22464        1.62225        1.28618
H         -0.81261        2.32028        0.46122
H         -1.67341        2.23809       -1.04820
H          0.05360        2.54463       -1.05630
