28
../min.c.330.o.330.log	Energy: -350346.8299149
N          1.33784       -0.37269       -0.07968
O          3.02308        1.14002       -0.30343
C          3.68372       -1.11788        0.09627
C          2.66093       -0.01810       -0.13486
C          0.41316        0.52162        0.64936
C          0.71454        1.99074        0.34434
C         -1.03344        0.22698        0.26536
C         -1.89843       -0.26268        1.25056
C         -3.23746       -0.50177        0.97309
C         -3.73175       -0.30008       -0.31374
C         -2.88652        0.19050       -1.29947
C         -1.54998        0.46164       -1.00808
C          0.85573       -1.69868       -0.44425
H          3.35393       -1.81013        0.86112
H          4.60933       -0.64711        0.39481
H          3.87477       -1.68091       -0.81191
H          1.66000       -2.27347       -0.87921
H          0.06949       -1.62514       -1.17897
H          0.47297       -2.24753        0.41191
H          0.51762        0.33512        1.71446
H         -1.52450       -0.44177        2.24336
H         -3.88785       -0.86740        1.74772
H         -4.76385       -0.50413       -0.53548
H         -3.25875        0.36539       -2.29307
H         -0.90860        0.84183       -1.78309
H          0.82355        2.15851       -0.71506
H          1.59801        2.35155        0.83784
H         -0.12858        2.58020        0.69930
