28
../min.c.330.o.240.log	Energy: -350346.0435877
N          1.32511        0.42966       -0.24993
O          3.34840        1.21873        0.42979
C          3.32027       -0.98772       -0.47853
C          2.66465        0.29385        0.00802
C          0.46265       -0.74540       -0.00144
C          0.81166       -1.41139        1.33154
C         -1.00674       -0.33675        0.02706
C         -1.87338       -0.89740       -0.91804
C         -3.22604       -0.58439       -0.92376
C         -3.73898        0.31727        0.00591
C         -2.89680        0.85734        0.96809
C         -1.53882        0.54013        0.97125
C          0.77692        1.51941       -1.04711
H          2.63994       -1.78477       -0.72623
H          4.05743       -1.33875        0.23257
H          3.85296       -0.70531       -1.38180
H          1.58959        2.17566       -1.32644
H          0.04564        2.10163       -0.50646
H          0.31475        1.12959       -1.94748
H          0.56704       -1.47132       -0.80344
H         -1.48773       -1.58297       -1.65200
H         -3.87371       -1.02411       -1.66112
H         -4.78363        0.57117       -0.00551
H         -3.28301        1.54085        1.70279
H         -0.89600        0.98794        1.70791
H          0.71720       -0.70151        2.14406
H          1.81586       -1.81245        1.35926
H          0.12829       -2.23278        1.51709
