28
../min.c.0.o.45.log	Energy: -350355.6148727
N          1.35450       -0.21916       -0.30544
O          2.88651        0.36642        1.27204
C          3.70604       -0.88881       -0.58459
C          2.60983       -0.24143        0.24501
C          0.44949        0.75480        0.34162
C          0.72145        2.17502       -0.15959
C         -1.00531        0.32501        0.18118
C         -1.59537       -0.42630        1.20390
C         -2.91593       -0.84411        1.11481
C         -3.68404       -0.50320        0.00340
C         -3.12020        0.26608       -1.00509
C         -1.79268        0.68292       -0.91217
C          0.75442       -1.37453       -0.96011
H          3.72224       -1.96738       -0.46141
H          4.65208       -0.49661       -0.24133
H          3.57133       -0.66837       -1.63592
H          1.53395       -1.97443       -1.41038
H          0.08792       -1.06248       -1.74781
H          0.20521       -1.99893       -0.26663
H          0.66143        0.74008        1.39901
H         -1.01244       -0.68907        2.06934
H         -3.34803       -1.42592        1.90947
H         -4.70791       -0.82396       -0.06635
H         -3.70709        0.54734       -1.86131
H         -1.37854        1.27919       -1.70436
H          0.60675        2.25135       -1.23528
H          1.73346        2.46414        0.09282
H          0.03991        2.87506        0.31173
