28
../min.c.90.o.285.log	Energy: -350347.5041237
N         -1.39957        0.24652        0.41129
O         -2.81133       -0.53175       -1.19483
C         -2.67019       -1.81430        0.81252
C         -2.36924       -0.60325       -0.05454
C         -0.45947        0.65356       -0.65495
C         -0.62102        2.13736       -0.99324
C          0.95857        0.20001       -0.32267
C          1.32434       -1.11784       -0.61945
C          2.59715       -1.58975       -0.33136
C          3.53528       -0.75128        0.26775
C          3.18742        0.55941        0.56413
C          1.90976        1.03200        0.26595
C         -1.61942        1.17293        1.51446
H         -1.86357       -2.51777        0.63217
H         -3.60811       -2.26672        0.52321
H         -2.67306       -1.58830        1.87160
H         -2.17242        0.67805        2.30357
H         -2.17611        2.05341        1.21140
H         -0.66510        1.47649        1.92303
H         -0.75666        0.11302       -1.53443
H          0.61040       -1.77243       -1.08901
H          2.85951       -2.60403       -0.57456
H          4.52216       -1.11491        0.49128
H          3.90555        1.21789        1.01968
H          1.66975        2.05479        0.49152
H         -0.36989        2.79737       -0.17201
H         -1.64948        2.32476       -1.27861
H          0.01566        2.40364       -1.83087
