28
../min.c.330.o.285.log	Energy: -350339.4690222
N         -1.33381        0.53861        0.00623
O         -2.65566       -1.06404       -0.92255
C         -3.78860        0.72188        0.18256
C         -2.55045       -0.00752       -0.31140
C         -0.41885       -0.24740        0.86142
C         -0.91515       -1.68637        1.02027
C          1.01566       -0.14018        0.35385
C          1.97335        0.45613        1.18202
C          3.29994        0.55578        0.78604
C          3.69313        0.08781       -0.46610
C          2.75693       -0.51936       -1.29170
C          1.42974       -0.63857       -0.88051
C         -0.79941        1.72343       -0.65270
H         -3.86855        0.54862        1.25241
H         -4.67241        0.34171       -0.30926
H         -3.71018        1.79316        0.03803
H         -1.61807        2.34594       -0.99776
H         -0.18329        1.47416       -1.50758
H         -0.21040        2.30781        0.04223
H         -0.43171        0.21156        1.84704
H          1.67978        0.83679        2.14472
H          4.02075        1.01427        1.43953
H          4.71691        0.17988       -0.78154
H          3.05037       -0.89900       -2.25408
H          0.71052       -1.10559       -1.53073
H         -0.92206       -2.22745        0.08974
H         -1.90870       -1.72181        1.44713
H         -0.24874       -2.19174        1.71441
