28
../min.c.90.o.330.log	Energy: -350359.9265253
N         -1.40785        0.29483        0.26540
O         -2.28925       -1.13042       -1.27414
C         -3.20700       -1.25431        0.92511
C         -2.29750       -0.66594       -0.14056
C         -0.39440        0.70084       -0.73179
C         -0.49570        2.19628       -1.04095
C          0.98854        0.20084       -0.32629
C          1.27543       -1.16095       -0.47398
C          2.51039       -1.67645       -0.10636
C          3.49084       -0.83686        0.41858
C          3.22219        0.51708        0.56491
C          1.98000        1.03117        0.19429
C         -1.67023        1.20076        1.37627
H         -2.62525       -1.56876        1.78364
H         -3.71017       -2.10662        0.49392
H         -3.95300       -0.54269        1.26261
H         -2.16757        0.68183        2.18173
H         -2.28018        2.04878        1.08199
H         -0.72876        1.56562        1.76375
H         -0.66282        0.18110       -1.63310
H          0.52423       -1.81313       -0.88332
H          2.71007       -2.72566       -0.23252
H          4.44946       -1.23337        0.70177
H          3.97314        1.17597        0.96353
H          1.80188        2.08450        0.30928
H         -0.27208        2.83462       -0.19517
H         -1.49924        2.42803       -1.38066
H          0.19394        2.45446       -1.83745
