28
../min.c.45.o.315.log	Energy: -350357.8860311
N         -1.33471       -0.17071        0.29493
O         -3.04471        0.56051       -1.01640
C         -3.45543       -1.41131        0.26325
C         -2.62743       -0.20943       -0.15974
C         -0.41961        0.68417       -0.49127
C         -0.65632        2.16578       -0.18960
C          1.02808        0.24658       -0.29221
C          1.44335       -0.96334       -0.85986
C          2.74868       -1.41156       -0.71464
C          3.67357       -0.65282        0.00004
C          3.27712        0.55237        0.56317
C          1.96355        0.99752        0.41801
C         -0.96881       -0.47156        1.67304
H         -2.83726       -2.29515        0.35158
H         -4.21444       -1.56197       -0.49052
H         -3.95564       -1.24689        1.21299
H         -1.76340       -1.02449        2.15272
H         -0.80419        0.43694        2.24357
H         -0.06945       -1.06882        1.70874
H         -0.67796        0.51322       -1.52563
H          0.73547       -1.55385       -1.41501
H          3.04723       -2.34362       -1.16061
H          4.68643       -0.99660        0.10998
H          3.98239        1.14909        1.11365
H          1.68522        1.93416        0.86134
H         -0.51574        2.39163        0.86264
H         -1.66604        2.43008       -0.46196
H          0.02734        2.78881       -0.75785
