28
../min.c.360.o.360.log	Energy: -350357.7425549
N          1.35278       -0.19384       -0.25263
O          3.13954        0.79848        0.74796
C          3.54939       -1.31618       -0.27895
C          2.67726       -0.12939        0.09515
C          0.43210        0.75303        0.41228
C          0.66809        2.18402       -0.07635
C         -1.01719        0.31789        0.21958
C         -1.60609       -0.49136        1.19778
C         -2.92426       -0.91109        1.08145
C         -3.68699       -0.52406       -0.01813
C         -3.12614        0.30639       -0.97862
C         -1.80288        0.72909       -0.85609
C          0.77003       -1.33269       -0.95049
H          3.13945       -2.23809        0.11672
H          4.52674       -1.14637        0.14788
H          3.65199       -1.42381       -1.35292
H          1.52893       -1.84269       -1.52176
H          0.01943       -1.00098       -1.64805
H          0.31502       -2.04683       -0.27300
H          0.64946        0.72293        1.47259
H         -1.02579       -0.79524        2.05150
H         -3.35616       -1.53639        1.84245
H         -4.70710       -0.85069       -0.11134
H         -3.71029        0.62807       -1.82224
H         -1.39214        1.37095       -1.61266
H          0.59041        2.24509       -1.15651
H          1.65288        2.51617        0.20890
H         -0.06842        2.85305        0.35752
