28
../min.c.105.o.270.log	Energy: -350340.5030918
N         -1.47219        0.28384        0.35463
O         -2.75711       -1.01088       -1.00591
C         -2.05541       -2.00175        1.04838
C         -2.18814       -0.84930        0.06693
C         -0.52998        0.62432       -0.73286
C         -0.70241        2.07959       -1.17403
C          0.89812        0.25908       -0.34021
C          1.51605       -0.81359       -0.99301
C          2.79968       -1.21672       -0.65103
C          3.49684       -0.55189        0.35522
C          2.90042        0.52071        1.00376
C          1.61095        0.92298        0.65707
C         -2.00394        1.37531        1.16055
H         -1.04890       -2.39201        0.93149
H         -2.77585       -2.77659        0.82885
H         -2.15329       -1.67217        2.07683
H         -2.57554        0.95945        1.98358
H         -2.65833        2.03691        0.60345
H         -1.19604        1.94842        1.59051
H         -0.79387        0.01865       -1.58299
H          0.98681       -1.33699       -1.77023
H          3.25492       -2.04526       -1.16393
H          4.49052       -0.86368        0.62266
H          3.43100        1.04580        1.77806
H          1.17010        1.75583        1.17464
H         -0.44665        2.79404       -0.40196
H         -1.72317        2.25704       -1.49045
H         -0.05253        2.27838       -2.02026
