28
../min.c.30.o.195.log	Energy: -350358.0358338
N         -1.35811       -0.09088        0.45442
O         -3.46893       -0.83929        0.85779
C         -2.97978       -0.23810       -1.39911
C         -2.63986       -0.39349        0.07376
C         -0.48234        0.64375       -0.48348
C         -0.70799        2.15377       -0.37804
C          0.97503        0.23824       -0.28705
C          1.40000       -0.99237       -0.80047
C          2.71398       -1.41391       -0.65396
C          3.63973       -0.60394        0.00105
C          3.23539        0.62538        0.50307
C          1.91267        1.04280        0.35868
C         -0.79842       -0.48474        1.74096
H         -2.84959        0.76918       -1.77026
H         -4.01743       -0.51649       -1.51177
H         -2.37354       -0.90699       -1.99949
H         -1.60692       -0.83811        2.36103
H         -0.32849        0.35962        2.22952
H         -0.06585       -1.27107        1.62292
H         -0.72918        0.34187       -1.48686
H          0.69328       -1.62630       -1.30790
H          3.01794       -2.36520       -1.05271
H          4.65900       -0.92736        0.11198
H          3.94111        1.26197        1.00600
H          1.62865        1.99828        0.75660
H         -0.53395        2.51273        0.62968
H         -1.73295        2.40034       -0.62928
H         -0.05442        2.69360       -1.05517
