28
../min.c.90.o.315.log	Energy: -350356.6949531
N         -1.40321        0.27957        0.31362
O         -2.45765       -0.89683       -1.32426
C         -3.05230       -1.44188        0.92154
C         -2.32968       -0.62506       -0.13658
C         -0.40984        0.69844       -0.69835
C         -0.52243        2.19617       -0.99212
C          0.98231        0.20078       -0.32257
C          1.28445       -1.15085       -0.52354
C          2.52889       -1.66415       -0.18620
C          3.50373       -0.83250        0.36144
C          3.22003        0.51165        0.56025
C          1.96829        1.02354        0.21997
C         -1.64887        1.17476        1.43694
H         -2.34854       -1.78033        1.67212
H         -3.50977       -2.28837        0.43152
H         -3.83089       -0.87221        1.41896
H         -2.18274        0.65513        2.22034
H         -2.22445        2.04801        1.14860
H         -0.70226        1.49734        1.84899
H         -0.68989        0.19038       -1.60145
H          0.53911       -1.79816       -0.95187
H          2.74073       -2.70524       -0.35333
H          4.46959       -1.22744        0.62109
H          3.96667        1.16453        0.97642
H          1.77774        2.06949        0.37516
H         -0.29040        2.82658       -0.14245
H         -1.53248        2.42384       -1.31449
H          0.15380        2.46866       -1.79556
