28
../min.c.300.o.300.log	Energy: -350351.0252932
N         -1.39348        0.65911       -0.17349
O         -1.89011       -1.55846       -0.05461
C         -3.67969       -0.10662       -0.67417
C         -2.23298       -0.41397       -0.32550
C         -0.40849        0.56046        0.92488
C         -0.98014       -0.22581        2.10690
C          0.96128        0.16307        0.38387
C          2.01761        1.07255        0.50889
C          3.27834        0.77806        0.00986
C          3.52493       -0.45955       -0.58209
C          2.49186       -1.37998       -0.69309
C          1.21685       -1.06516       -0.22409
C         -1.13092        1.61844       -1.23853
H         -4.20466       -0.01634        0.27206
H         -4.11573       -0.92743       -1.22699
H         -3.81211        0.81978       -1.21444
H         -1.97051        1.66499       -1.91723
H         -0.24778        1.34510       -1.80538
H         -0.97998        2.60556       -0.81621
H         -0.30893        1.58473        1.27167
H          1.84768        2.02538        0.98021
H          4.07179        1.49884        0.09983
H          4.50633       -0.69462       -0.95385
H          2.66707       -2.33817       -1.14885
H          0.42024       -1.77602       -0.32600
H         -0.95439       -1.29184        1.96965
H         -2.00134        0.08524        2.29692
H         -0.39436        0.01967        2.98841
