28
../min.c.90.o.30.log	Energy: -350358.4694155
N          1.55535        0.34303       -0.02369
O          1.33604       -1.84821        0.54970
C          3.25951       -1.27953       -0.74304
C          1.93415       -0.97383       -0.06555
C          0.46871        0.71285        0.90838
C          0.55898        2.18964        1.29971
C         -0.88484        0.27923        0.35448
C         -1.47196       -0.88494        0.86300
C         -2.69844       -1.33265        0.39239
C         -3.36941       -0.62046       -0.59967
C         -2.80735        0.54584       -1.10025
C         -1.57527        0.99290       -0.62399
C          1.93359        1.31048       -1.04572
H          3.16639       -1.31646       -1.82369
H          3.57774       -2.25277       -0.39962
H          4.00696       -0.53847       -0.48915
H          2.63085        0.87134       -1.74053
H          2.40476        2.18211       -0.60985
H          1.06873        1.62884       -1.61527
H          0.64808        0.13091        1.79924
H         -0.95039       -1.45316        1.60746
H         -3.12711       -2.23388        0.79302
H         -4.31895       -0.96578       -0.96811
H         -3.32175        1.11176       -1.85673
H         -1.17486        1.91023       -1.01656
H          0.35585        2.86622        0.47943
H          1.54350        2.41557        1.69500
H         -0.17154        2.39090        2.07512
