28
../min.c.60.o.315.log	Energy: -350359.0266598
N         -1.33944       -0.07809        0.35365
O         -2.90110        0.30141       -1.25743
C         -3.40593       -1.41425        0.32243
C         -2.56114       -0.28055       -0.23442
C         -0.40529        0.71699       -0.47189
C         -0.61511        2.21658       -0.24962
C          1.02814        0.23238       -0.27862
C          1.34185       -1.08313       -0.63862
C          2.63130       -1.57619       -0.49647
C          3.63905       -0.76206        0.01673
C          3.34238        0.54524        0.37691
C          2.04724        1.03940        0.22495
C         -1.14515       -0.07188        1.79788
H         -2.78912       -2.28370        0.51466
H         -4.16515       -1.65105       -0.40804
H         -3.89703       -1.13676        1.25001
H         -1.68002       -0.89430        2.25287
H         -1.48627        0.85339        2.25339
H         -0.09507       -0.19947        2.01333
H         -0.67819        0.50448       -1.49210
H          0.56837       -1.71944       -1.03084
H          2.85138       -2.58897       -0.78384
H          4.63827       -1.14288        0.12968
H          4.11214        1.18444        0.77127
H          1.84609        2.05538        0.50671
H         -0.40175        2.51571        0.77153
H         -1.64400        2.46384       -0.47269
H          0.02118        2.79950       -0.90758
