28
../min.c.30.o.75.log	Energy: -350348.2361989
N         -1.40777        0.21401        0.41738
O         -2.23735       -1.37361       -0.98606
C         -3.81169       -0.28418        0.43834
C         -2.40893       -0.59320       -0.05745
C         -0.48465        0.65149       -0.65163
C         -0.63493        2.14907       -0.92886
C          0.94506        0.22439       -0.33472
C          1.29212       -1.12102       -0.50214
C          2.57206       -1.57156       -0.21175
C          3.54717       -0.67591        0.22330
C          3.22148        0.66455        0.37776
C          1.92930        1.11015        0.10135
C         -0.87993        0.11045        1.77172
H         -3.83791        0.00836        1.48047
H         -4.47081       -1.12360        0.26738
H         -4.15613        0.56128       -0.14883
H         -0.18827       -0.71562        1.88255
H         -1.69820       -0.02737        2.46906
H         -0.37246        1.02755        2.03476
H         -0.76880        0.12626       -1.54469
H          0.54301       -1.81236       -0.84615
H          2.81450       -2.61144       -0.34059
H          4.54298       -1.02055        0.43771
H          3.96618        1.36594        0.70999
H          1.70634        2.15314        0.22718
H         -0.45465        2.75402       -0.04653
H         -1.64597        2.35669       -1.26280
H          0.05107        2.46308       -1.70821
