28
../min.c.45.o.225.log	Energy: -350351.6917592
N          1.40226       -0.28485        0.36137
O          3.60747        0.11159        0.75924
C          2.50585        1.63275       -0.71277
C          2.57996        0.38441        0.15046
C          0.47607       -0.48783       -0.77321
C          0.63486       -1.88872       -1.36860
C         -0.95165       -0.13114       -0.37152
C         -1.31966        1.21884       -0.34449
C         -2.60095        1.60437        0.02330
C         -3.54912        0.64291        0.36795
C         -3.20144       -0.70048        0.33392
C         -1.91288       -1.08373       -0.03676
C          0.99236       -0.77657        1.67048
H          2.48096        1.42258       -1.77622
H          3.39705        2.21077       -0.51425
H          1.63067        2.21252       -0.45537
H          1.83211       -0.69120        2.34315
H          0.69814       -1.81917        1.63078
H          0.16174       -0.19500        2.04913
H          0.75603        0.21030       -1.54564
H         -0.60442        1.97271       -0.61786
H         -2.86285        2.64733        0.03604
H         -4.54281        0.93963        0.65148
H         -3.92587       -1.45227        0.59146
H         -1.67054       -2.12969       -0.05867
H          0.45609       -2.66901       -0.63854
H          1.64802       -2.01368       -1.73408
H         -0.05042       -2.03343       -2.19742
