28
../min.c.30.o.90.log	Energy: -350342.7988146
N         -1.41060        0.20938        0.45991
O         -2.13701       -1.56620       -0.76402
C         -3.82447       -0.18603        0.20652
C         -2.38719       -0.62116       -0.02570
C         -0.50900        0.66921       -0.61806
C         -0.67064        2.17061       -0.86681
C          0.92782        0.24204       -0.33527
C          1.26627       -1.10677       -0.49259
C          2.55622       -1.55499       -0.24409
C          3.53725       -0.66184        0.18145
C          3.22018        0.68197        0.32430
C          1.92498        1.12974        0.06614
C         -0.85734        0.08392        1.80220
H         -3.98343        0.16196        1.22083
H         -4.51074       -0.98611       -0.03150
H         -4.00695        0.65523       -0.45540
H         -0.18099       -0.75705        1.90128
H         -1.66871       -0.03833        2.51236
H         -0.32900        0.99099        2.05734
H         -0.80638        0.15953       -1.51929
H          0.50642       -1.80025       -0.80541
H          2.79387       -2.59589       -0.37337
H          4.53577       -1.00758        0.38119
H          3.97252        1.38365        0.63820
H          1.70957        2.17541        0.18231
H         -0.47126        2.75768        0.02317
H         -1.69013        2.38148       -1.17137
H         -0.00481        2.50306       -1.65614
