28
../min.c.45.o.195.log	Energy: -350358.8348153
N         -1.37391        0.07469        0.46021
O         -3.48878       -0.65726        0.87246
C         -2.76655       -0.75380       -1.39984
C         -2.59292       -0.41784        0.07189
C         -0.46716        0.63771       -0.56309
C         -0.65790        2.15055       -0.69403
C          0.97116        0.19958       -0.30575
C          1.28934       -1.15673       -0.43913
C          2.58124       -1.61384       -0.22071
C          3.59280       -0.71713        0.11816
C          3.29293        0.63200        0.24727
C          1.99086        1.08562        0.03862
C         -0.95228        0.14154        1.85352
H         -1.99477       -1.43119       -1.74350
H         -2.76533        0.12410       -2.03468
H         -3.72718       -1.23886       -1.49549
H         -1.79409       -0.12168        2.47340
H         -0.62888        1.14320        2.11151
H         -0.13691       -0.54493        2.03801
H         -0.72813        0.20635       -1.51119
H          0.51655       -1.85932       -0.69825
H          2.80203       -2.66128       -0.32321
H          4.59576       -1.06854        0.28073
H          4.06414        1.33374        0.51014
H          1.78682        2.13393        0.14669
H         -0.45232        2.67147        0.23381
H         -1.68605        2.36417       -0.96513
H         -0.01309        2.55821       -1.46536
