28
../min.c.135.o.195.log	Energy: -347095.3688882
N         -1.57660       -0.30286        0.73439
O         -2.01440       -0.78462       -1.44612
C         -0.32900       -1.25895        0.17521
C         -1.76622       -1.17027       -0.31012
C         -0.84945        0.52892       -0.24832
C         -1.68074        1.74605       -0.66032
C          0.65714        0.34080       -0.10092
C          1.16455       -0.96233       -0.04644
C          2.52640       -1.19552        0.08290
C          3.41544       -0.12509        0.15911
C          2.92657        1.17276        0.10124
C          1.55730        1.40283       -0.02857
C         -2.67726        0.31275        1.46456
H          0.04883       -0.23912        0.50151
H          0.32726       -1.60270       -0.65050
H         -0.22785       -2.00161        1.02245
H         -3.16552       -0.40497        2.13143
H         -3.44964        0.74927        0.78704
H         -2.27792        1.11083        2.10661
H         -0.74637       -0.23530       -1.02184
H          0.47662       -1.80150       -0.11048
H          2.89797       -2.21520        0.11834
H          4.48146       -0.30451        0.25844
H          3.60992        2.01558        0.15598
H          1.20060        2.42599       -0.07686
H         -1.75605        2.49431        0.13385
H         -2.69143        1.42387       -0.92010
H         -1.24482        2.23032       -1.53766
