28
../min.c.15.o.330.log	Energy: -350355.1768482
N         -1.34586       -0.22868        0.18879
O         -3.18940        0.82685       -0.62706
C         -3.51160       -1.39206        0.18959
C         -2.69104       -0.13757       -0.05931
C         -0.42688        0.70121       -0.50192
C         -0.67710        2.14664       -0.06565
C          1.02447        0.29198       -0.27165
C          1.60049       -0.64075       -1.14158
C          2.91891       -1.04589       -0.98610
C          3.69493       -0.52123        0.04531
C          3.14275        0.42016        0.90300
C          1.81973        0.82945        0.73935
C         -0.78346       -1.11597        1.19874
H         -2.97220       -2.27446       -0.13050
H         -4.42627       -1.29393       -0.37646
H         -3.77429       -1.51394        1.23550
H         -1.57776       -1.63834        1.70965
H         -0.23833       -0.55306        1.94414
H         -0.11581       -1.85092        0.76985
H         -0.63681        0.62319       -1.56101
H          1.00897       -1.05127       -1.94145
H          3.34193       -1.76449       -1.66533
H          4.71607       -0.83478        0.16770
H          3.73494        0.84271        1.69492
H          1.41996        1.56352        1.41254
H         -0.64992        2.23563        1.01559
H         -1.64488        2.47771       -0.40048
H          0.08342        2.80260       -0.47841
