28
../min.c.285.o.45.log	Energy: -350346.3650744
N          1.42711       -0.56541       -0.46895
O          2.91068        0.45376        0.92342
C          2.27945        1.68205       -1.02265
C          2.26266        0.46258       -0.11620
C          0.44361       -1.04766        0.52428
C          1.00802       -0.95987        1.94411
C         -0.91167       -0.38287        0.30467
C         -1.93649       -1.13416       -0.28175
C         -3.18392       -0.57588       -0.52612
C         -3.42997        0.75596       -0.20051
C         -2.42878        1.50742        0.39925
C         -1.17946        0.94089        0.65023
C          1.31951       -1.06841       -1.83240
H          2.44705        1.42975       -2.06314
H          3.04516        2.36815       -0.69112
H          1.30614        2.15848       -0.96053
H          2.22578       -0.85150       -2.38067
H          0.47308       -0.66006       -2.37905
H          1.21252       -2.14610       -1.79217
H          0.31021       -2.10283        0.31158
H         -1.75817       -2.16287       -0.54219
H         -3.95789       -1.17110       -0.97719
H         -4.39309        1.19219       -0.39568
H         -2.61216        2.53133        0.67217
H         -0.41932        1.53819        1.12261
H          1.11514        0.04780        2.30790
H          1.96453       -1.45088        2.00386
H          0.30794       -1.47304        2.60140
