28
../min.c.15.o.285.log	Energy: -350339.3153647
N         -1.33565       -0.24001        0.29999
O         -3.27494        0.91101       -0.00447
C         -3.41102       -1.46460       -0.18399
C         -2.69140       -0.15970        0.11330
C         -0.45695        0.46914       -0.65465
C         -0.75541        1.97013       -0.66578
C          1.01013        0.19077       -0.34298
C          1.62220       -0.91385       -0.94615
C          2.95535       -1.21423       -0.70441
C          3.71041       -0.41016        0.14719
C          3.12221        0.70129        0.73494
C          1.78299        1.00112        0.48737
C         -0.73201       -0.76900        1.51628
H         -3.15619       -1.73011       -1.20590
H         -4.48163       -1.33923       -0.10501
H         -3.07880       -2.27564        0.45343
H         -1.50363       -1.25526        2.10432
H         -0.31135        0.01903        2.13033
H          0.03648       -1.49832        1.30757
H         -0.65602        0.06962       -1.64400
H          1.04700       -1.54219       -1.60370
H          3.40588       -2.06895       -1.17682
H          4.74318       -0.64195        0.33604
H          3.69723        1.33763        1.38356
H          1.35165        1.86784        0.95144
H         -0.78092        2.36854        0.34103
H         -1.71197        2.17594       -1.11497
H          0.00912        2.49954       -1.22821
