28
../min.c.60.o.165.log	Energy: -350359.2849595
N         -1.38647        0.08982        0.47757
O         -3.21416       -1.25249        0.66762
C         -2.80927       -0.32850       -1.49492
C         -2.48354       -0.55798       -0.02854
C         -0.45661        0.76279       -0.45452
C         -0.59303        2.28443       -0.36401
C          0.96369        0.23844       -0.26824
C          1.18940       -1.13671       -0.39712
C          2.46471       -1.66827       -0.26615
C          3.54336       -0.83532        0.02442
C          3.33355        0.53024        0.15843
C          2.05422        1.06321        0.00370
C         -1.13357        0.22470        1.90635
H         -2.81447        0.72183       -1.75397
H         -3.79678       -0.73639       -1.65720
H         -2.12251       -0.84781       -2.15354
H         -1.82652       -0.41075        2.43352
H         -1.28029        1.24992        2.22785
H         -0.12219       -0.07799        2.14201
H         -0.73415        0.48191       -1.45176
H          0.36217       -1.79430       -0.59691
H          2.61536       -2.72740       -0.37501
H          4.53003       -1.24679        0.13907
H          4.15806        1.18426        0.37938
H          1.92304        2.12325        0.10855
H         -0.28843        2.66931        0.60183
H         -1.62834        2.56646       -0.51964
H          0.00621        2.77354       -1.12452
