28
../min.c.0.o.60.log	Energy: -350351.6913996
N          1.35269       -0.19740       -0.34806
O          2.81442       -0.12007        1.39429
C          3.74624       -0.53521       -0.76294
C          2.59483       -0.35080        0.21135
C          0.46177        0.65797        0.46492
C          0.75990        2.14078        0.23128
C         -0.99926        0.28712        0.23089
C         -1.60767       -0.61470        1.11132
C         -2.93451       -0.98838        0.94974
C         -3.69024       -0.45306       -0.09137
C         -3.10718        0.46282       -0.95620
C         -1.77389        0.83612       -0.78990
C          0.73589       -1.20613       -1.19988
H          3.47835       -1.04273       -1.67799
H          4.56806       -1.04707       -0.28103
H          4.07235        0.46724       -1.02108
H          1.50804       -1.76970       -1.70585
H          0.11665       -0.74597       -1.95384
H          0.13381       -1.90417       -0.63280
H          0.66573        0.44663        1.50160
H         -1.03373       -1.02958        1.92139
H         -3.38084       -1.68735        1.63450
H         -4.71886       -0.73979       -0.21706
H         -3.68398        0.89267       -1.75572
H         -1.34478        1.54891       -1.47017
H          0.65122        2.41620       -0.81188
H          1.77707        2.36256        0.53249
H          0.09141        2.75534        0.82441
