28
../min.c.360.o.75.log	Energy: -350346.3837792
N         -1.35255       -0.08349        0.42974
O         -2.72847       -0.84448       -1.21529
C         -3.77935       -0.04700        0.77317
C         -2.57765       -0.44764       -0.06613
C         -0.47881        0.47209       -0.62583
C         -0.79062        1.94931       -0.87643
C          0.98825        0.20493       -0.30447
C          1.58635       -0.94730       -0.82717
C          2.91811       -1.24195       -0.57073
C          3.68918       -0.37773        0.20404
C          3.11542        0.78105        0.70878
C          1.77628        1.07222        0.45069
C         -0.71677       -0.76240        1.55154
H         -3.60715       -0.14687        1.83744
H         -4.65579       -0.60790        0.48009
H         -3.94660        1.00489        0.56470
H         -1.48635       -1.09466        2.23991
H         -0.06656       -0.08886        2.08588
H         -0.14863       -1.63094        1.24197
H         -0.68357       -0.06236       -1.53818
H          0.99999       -1.61742       -1.43129
H          3.35642       -2.13559       -0.97809
H          4.72204       -0.60244        0.40099
H          3.70350        1.46154        1.29855
H          1.35460        1.97622        0.85057
H         -0.68373        2.54482        0.02328
H         -1.81211        2.05730       -1.22601
H         -0.13269        2.34908       -1.64041
