28
../min.c.360.o.15.log	Energy: -350358.8028437
N          1.35418       -0.19015       -0.27945
O          3.06186        0.70393        0.93002
C          3.59309       -1.22631       -0.36854
C          2.65412       -0.15202        0.15421
C          0.43557        0.77391        0.36326
C          0.67517        2.19277       -0.15791
C         -1.01352        0.32687        0.19834
C         -1.58959       -0.45338        1.20728
C         -2.90573       -0.88501        1.11525
C         -3.68083       -0.53557        0.01162
C         -3.13284        0.26648       -0.97994
C         -1.81103        0.70010       -0.88247
C          0.76998       -1.35329       -0.93473
H          3.29001       -2.21080       -0.02987
H          4.57930       -1.01102        0.01510
H          3.62590       -1.23465       -1.45181
H          1.53103       -1.89172       -1.47676
H          0.02727       -1.04549       -1.65148
H          0.30526       -2.03453       -0.23095
H          0.65866        0.77250        1.42161
H         -1.00021       -0.72642        2.06520
H         -3.32728       -1.48843        1.89936
H         -4.69992       -0.87028       -0.06209
H         -3.72651        0.55844       -1.82776
H         -1.40993        1.31997       -1.66249
H          0.57004        2.24058       -1.23636
H          1.67308        2.51413        0.09893
H         -0.03704        2.87998        0.28724
