28
../min.c.105.o.60.log	Energy: -350345.8043888
N         -1.62242        0.27117        0.06881
O         -0.82136       -1.84345       -0.18621
C         -3.19351       -1.58414       -0.18488
C         -1.76882       -1.09031        0.00329
C         -0.52985        0.88152       -0.71864
C         -0.63032        2.40859       -0.70661
C          0.82446        0.34979       -0.26025
C          1.74459       -0.05589       -1.23359
C          3.00779       -0.51164       -0.87954
C          3.37726       -0.57609        0.46154
C          2.48550       -0.14881        1.43570
C          1.22342        0.32233        1.07525
C         -2.26681        1.09054        1.08714
H         -3.93749       -1.00435        0.34457
H         -3.27372       -2.62747        0.08749
H         -3.39203       -1.48646       -1.24738
H         -2.95564        0.48114        1.65695
H         -2.82967        1.91000        0.65975
H         -1.54819        1.49254        1.79016
H         -0.67153        0.55282       -1.74154
H          1.46197       -0.03680       -2.27188
H          3.69413       -0.83257       -1.64307
H          4.34898       -0.94394        0.73880
H          2.76274       -0.18306        2.47441
H          0.54654        0.63407        1.84969
H         -0.45570        2.83128        0.27399
H         -1.59544        2.74065       -1.07146
H          0.13072        2.80622       -1.36883
