28
../min.c.0.o.270.log	Energy: -350335.8325398
N         -1.36175        0.07419        0.47559
O         -3.59395        0.49735        0.60447
C         -2.95629       -1.41793       -0.66808
C         -2.67204       -0.17522        0.15890
C         -0.49098        0.42275       -0.66746
C         -0.76067        1.85029       -1.14868
C          0.97290        0.16245       -0.32646
C          1.53078       -1.07094       -0.68162
C          2.85824       -1.36339       -0.40141
C          3.67619       -0.40288        0.19042
C          3.14271        0.83414        0.52500
C          1.80080        1.11359        0.26807
C         -0.72653       -0.43541        1.68405
H         -2.44615       -1.41459       -1.62308
H         -4.01933       -1.51500       -0.83642
H         -2.59738       -2.27997       -0.11255
H         -1.49862       -0.58430        2.43062
H         -0.02774        0.28262        2.08213
H         -0.21168       -1.37836        1.53090
H         -0.71304       -0.23675       -1.50042
H          0.91563       -1.81273       -1.16065
H          3.26268       -2.32332       -0.66895
H          4.70992       -0.62065        0.38995
H          3.76312        1.58442        0.98153
H          1.40929        2.07679        0.53834
H         -0.60383        2.57118       -0.35586
H         -1.79206        1.94909       -1.47000
H         -0.11758        2.09876       -1.98673
