28
../min.c.315.o.285.log	Energy: -350344.2952196
N          1.36579       -0.64738       -0.21060
O          2.09382        1.50818       -0.25418
C          3.77681       -0.17461       -0.42757
C          2.34053        0.31013       -0.32206
C          0.42408       -0.44965        0.91207
C          1.02374        0.47178        1.97677
C         -0.97193       -0.12333        0.39100
C         -2.01895       -1.00169        0.69240
C         -3.30332       -0.77287        0.21998
C         -3.58325        0.37693       -0.51667
C         -2.56015        1.27165       -0.79856
C         -1.26094        1.01335       -0.36262
C          0.92371       -1.46427       -1.33347
H          4.09906       -0.44803        0.57287
H          4.41370        0.61380       -0.80244
H          3.86741       -1.05826       -1.04765
H          1.77393       -1.73288       -1.94932
H          0.19586       -0.95168       -1.95210
H          0.47942       -2.37755       -0.95780
H          0.34711       -1.42965        1.37506
H         -1.82212       -1.88375        1.27707
H         -4.08907       -1.47254        0.44389
H         -4.58243        0.56500       -0.86687
H         -2.76141        2.16192       -1.36728
H         -0.46838        1.69918       -0.60147
H          1.00843        1.51221        1.70549
H          2.04182        0.17675        2.20348
H          0.44361        0.34724        2.88707
