28
../min.c.30.o.240.log	Energy: -350346.3871746
N         -1.40142        0.25972        0.40312
O         -3.63862       -0.00609        0.72352
C         -2.59405       -1.53543       -0.78123
C         -2.61335       -0.32055        0.13130
C         -0.48750        0.52123       -0.72944
C         -0.65340        1.95046       -1.25096
C          0.94673        0.15902       -0.35695
C          1.33560       -1.18349       -0.42810
C          2.62769       -1.57269       -0.10456
C          3.56710       -0.62152        0.28904
C          3.19887        0.71537        0.35137
C          1.89847        1.10191        0.02852
C         -0.86477        0.38170        1.75245
H         -2.55049       -1.28367       -1.83513
H         -3.51101       -2.08268       -0.61433
H         -1.74422       -2.16169       -0.54409
H         -1.68818        0.32135        2.44994
H         -0.37898        1.33869        1.89319
H         -0.15237       -0.40512        1.96707
H         -0.76246       -0.13987       -1.53767
H          0.62553       -1.92751       -0.74218
H          2.90542       -2.60982       -0.16606
H          4.56976       -0.92078        0.53593
H          3.91629        1.45975        0.64717
H          1.64045        2.14296        0.08047
H         -0.48000        2.68645       -0.47447
H         -1.66822        2.09217       -1.60623
H          0.02906        2.14433       -2.07214
