28
../min.c.90.o.60.log	Energy: -350349.2345080
N          1.58965        0.33180       -0.07629
O          1.05548       -1.87708        0.04162
C          3.34903       -1.34215       -0.34281
C          1.87348       -1.00214       -0.21559
C          0.52237        0.67687        0.88712
C          0.62147        2.14277        1.31552
C         -0.84329        0.26611        0.34568
C         -1.50874       -0.80229        0.95748
C         -2.76817       -1.20094        0.52987
C         -3.38889       -0.54084       -0.52789
C         -2.74920        0.53354       -1.13061
C         -1.49345        0.94419       -0.68433
C          1.95313        1.32899       -1.07483
H          3.93099       -0.60794       -0.88208
H          3.47756       -2.31800       -0.79085
H          3.72164       -1.37879        0.67566
H          2.67348        0.91028       -1.76365
H          2.39914        2.20337       -0.62042
H          1.09475        1.63348       -1.66077
H          0.71448        0.06971        1.76068
H         -1.02513       -1.34085        1.75005
H         -3.25753       -2.02980        1.00963
H         -4.35965       -0.85425       -0.86846
H         -3.22551        1.06237       -1.93722
H         -1.03923        1.80012       -1.14902
H          0.38655        2.83520        0.51728
H          1.61690        2.36437        1.68518
H         -0.08629        2.32002        2.11743
