28
../min.c.330.o.165.log	Energy: -350336.2634251
N          1.35031       -0.52040       -0.16467
O          3.47473       -1.19292        0.29679
C          3.17802        1.13631       -0.12856
C          2.68492       -0.29014        0.04784
C          0.50382        0.49638        0.49557
C          0.65902        1.86205       -0.17752
C         -0.97212        0.22877        0.21827
C         -1.83683        0.06705        1.30671
C         -3.19740       -0.13415        1.11665
C         -3.71940       -0.21164       -0.17242
C         -2.87529       -0.04152       -1.26113
C         -1.51006        0.16572       -1.06630
C          0.79422       -1.85519       -0.34546
H          2.80743        1.60987       -1.01449
H          4.25300        1.03444       -0.22583
H          3.01262        1.74239        0.74743
H          1.60303       -2.51678       -0.61705
H          0.05968       -1.84853       -1.13307
H          0.33511       -2.23668        0.56057
H          0.67841        0.52886        1.56444
H         -1.44306        0.10416        2.30726
H         -3.84465       -0.25317        1.96719
H         -4.77050       -0.38141       -0.32153
H         -3.26580       -0.08866       -2.26186
H         -0.87250        0.27634       -1.92455
H          0.80545        1.74525       -1.24011
H          1.40661        2.51839        0.22059
H         -0.26827        2.40980       -0.05249
