28
../min.c.105.o.0.log	Energy: -350359.5290580
N          1.50005        0.30470       -0.08464
O          1.50076       -1.84545        0.66052
C          3.23223       -1.26544       -0.87568
C          1.99446       -0.97330       -0.04405
C          0.43296        0.67961        0.86777
C          0.55388        2.14899        1.27824
C         -0.93441        0.26712        0.33198
C         -1.51816       -0.90539        0.82498
C         -2.75453       -1.33736        0.36600
C         -3.44342       -0.59571       -0.59177
C         -2.87693        0.57002       -1.08866
C         -1.63237        0.99841       -0.62796
C          2.10665        1.36544       -0.87864
H          3.02266       -1.19918       -1.93767
H          3.54413       -2.27329       -0.64596
H          4.03760       -0.57830       -0.64397
H          2.64855        0.95185       -1.71325
H          2.78944        1.98005       -0.30152
H          1.33801        2.00016       -1.29476
H          0.61184        0.08789        1.75250
H         -0.98333       -1.49251        1.54666
H         -3.18091       -2.24485        0.75471
H         -4.40387       -0.92525       -0.94600
H         -3.39871        1.15120       -1.82829
H         -1.22028        1.90995       -1.02383
H          0.35238        2.84684        0.47688
H          1.54106        2.35477        1.67559
H         -0.16712        2.34704        2.06393
