28
../min.c.360.o.270.log	Energy: -350335.8336059
N         -1.36176        0.07426        0.47564
O         -3.59401        0.49722        0.60447
C         -2.95613       -1.41794       -0.66816
C         -2.67202       -0.17524        0.15888
C         -0.49099        0.42279       -0.66743
C         -0.76068        1.85033       -1.14869
C          0.97288        0.16246       -0.32644
C          1.53073       -1.07094       -0.68160
C          2.85819       -1.36343       -0.40139
C          3.67616       -0.40293        0.19042
C          3.14272        0.83413        0.52495
C          1.80083        1.11360        0.26803
C         -0.72654       -0.43534        1.68410
H         -2.44505       -1.41505       -1.62266
H         -4.01906       -1.51459       -0.83748
H         -2.59825       -2.28004       -0.11205
H         -1.49860       -0.58406        2.43073
H         -0.02762        0.28264        2.08204
H         -0.21182       -1.37836        1.53100
H         -0.71314       -0.23666       -1.50040
H          0.91557       -1.81272       -1.16062
H          3.26260       -2.32336       -0.66892
H          4.70989       -0.62072        0.38995
H          3.76316        1.58440        0.98146
H          1.40937        2.07683        0.53829
H         -0.60393        2.57123       -0.35585
H         -1.79205        1.94910       -1.47008
H         -0.11754        2.09880       -1.98669
