28
../min.c.315.o.270.log	Energy: -350340.4073063
N         -1.37115       -0.43615        0.56160
O         -2.05809        1.54031       -0.33287
C         -3.77654       -0.03005        0.19172
C         -2.33356        0.44307        0.13722
C         -0.44083       -0.88524       -0.49630
C         -1.01645       -0.61048       -1.88747
C          0.95840       -0.32861       -0.25282
C          2.02017       -1.22982       -0.11470
C          3.31295       -0.78266        0.11762
C          3.57945        0.58385        0.18349
C          2.53776        1.48943        0.03673
C          1.23642        1.03527       -0.17525
C         -0.91479       -0.50688        1.94374
H         -3.90102       -0.84241       -0.51606
H         -4.44936        0.77853       -0.05532
H         -4.01409       -0.42693        1.17349
H         -1.76640       -0.43439        2.61178
H         -0.20937        0.27787        2.19465
H         -0.44181       -1.46678        2.10765
H         -0.37319       -1.96364       -0.38759
H          1.83097       -2.28804       -0.17215
H          4.11275       -1.49258        0.23366
H          4.58265        0.93137        0.35457
H          2.72799        2.54655        0.08975
H          0.43234        1.74140       -0.27222
H         -1.02049        0.43683       -2.14112
H         -2.02290       -1.00344       -1.97682
H         -0.40325       -1.13111       -2.61638
