28
../min.c.45.o.45.log	Energy: -350358.3202071
N         -1.42939        0.32999        0.31270
O         -2.22423       -1.16693       -1.20580
C         -3.64182       -0.69485        0.65481
C         -2.35087       -0.57930       -0.13835
C         -0.43762        0.75326       -0.69901
C         -0.50161        2.26435       -0.93291
C          0.95010        0.22962       -0.34271
C          1.20589       -1.13813       -0.49247
C          2.44269       -1.67529       -0.16433
C          3.46258       -0.84884        0.30334
C          3.22683        0.51172        0.44490
C          1.97888        1.04572        0.12528
C         -1.06628        0.46147        1.71785
H         -3.50770       -1.27346        1.56347
H         -4.36864       -1.19751        0.03430
H         -4.00235        0.28852        0.93052
H         -0.37612       -0.31294        2.03287
H         -1.95059        0.41980        2.33921
H         -0.59784        1.42202        1.87843
H         -0.73009        0.27382       -1.61386
H          0.42483       -1.77683       -0.86487
H          2.61619       -2.72978       -0.28545
H          4.42459       -1.26125        0.55010
H          4.00731        1.16030        0.80146
H          1.82568        2.10242        0.24132
H         -0.30739        2.84181       -0.03531
H         -1.49118        2.53130       -1.28638
H          0.22031        2.55896       -1.68677
