28
../min.c.60.o.120.log	Energy: -350348.2498498
N         -1.34891       -0.10327        0.42152
O         -2.87201       -1.75800        0.07453
C         -3.33843        0.34741       -0.94723
C         -2.46977       -0.62680       -0.16918
C         -0.44890        0.73602       -0.39817
C         -0.64862        2.22135       -0.08822
C          0.99572        0.26513       -0.26302
C          1.27990       -1.08734       -0.48359
C          2.57599       -1.57272       -0.38003
C          3.62624       -0.70565       -0.08530
C          3.36094        0.64101        0.12174
C          2.05363        1.11999        0.04278
C         -1.11443       -0.14916        1.85905
H         -3.81221        0.98886       -0.21066
H         -4.10368       -0.19817       -1.48125
H         -2.80082        0.97966       -1.63899
H         -1.71863       -0.93747        2.28363
H         -1.38140        0.79223        2.33069
H         -0.07566       -0.36434        2.06930
H         -0.72530        0.56721       -1.43051
H          0.47507       -1.76499       -0.70520
H          2.76826       -2.61852       -0.53995
H          4.63264       -1.07755       -0.01454
H          4.16173        1.32029        0.35353
H          1.87996        2.16421        0.21819
H         -0.33792        2.46516        0.92111
H         -1.69340        2.48687       -0.18475
H         -0.08378        2.84788       -0.77062
