28
../min.c.285.o.360.log	Energy: -350355.6083510
N          1.43454       -0.65527       -0.17828
O          2.13793        1.28870        0.77282
C          3.01953        0.79387       -1.38871
C          2.19355        0.48601       -0.15097
C          0.39125       -0.81155        0.85779
C          0.92713       -0.42965        2.23952
C         -0.94100       -0.25383        0.36692
C         -1.96351       -1.15357        0.04518
C         -3.19795       -0.70375       -0.40352
C         -3.41943        0.65873       -0.59142
C         -2.41801        1.56321       -0.26615
C         -1.19148        1.10950        0.21815
C          1.39631       -1.55571       -1.32341
H          3.78714        0.04919       -1.56798
H          3.49087        1.75351       -1.23825
H          2.38181        0.83825       -2.26448
H          2.36695       -1.62947       -1.78846
H          0.67040       -1.24616       -2.06998
H          1.12424       -2.54427       -0.97738
H          0.24621       -1.88502        0.90849
H         -1.80203       -2.21043        0.16886
H         -3.97394       -1.41208       -0.63382
H         -4.36796        1.00675       -0.95957
H         -2.58355        2.61916       -0.38466
H         -0.42521        1.81837        0.47293
H          0.85516        0.61657        2.46943
H          1.95878       -0.73745        2.33021
H          0.34755       -0.97921        2.97967
