28
../min.c.285.o.165.log	Energy: -350344.0109367
N         -1.41862        0.67915        0.11205
O         -3.18251        0.40153       -1.29863
C         -2.02544       -1.58543       -0.66029
C         -2.27187       -0.08614       -0.64005
C         -0.47766        0.00889        1.03491
C         -1.18232       -1.08642        1.83861
C          0.91848       -0.05719        0.42396
C          1.71150        1.09574        0.44512
C          2.98037        1.10235       -0.11845
C          3.50238       -0.06117       -0.67902
C          2.75175       -1.22838       -0.64903
C          1.46932       -1.22524       -0.10118
C         -1.32776        2.12770       -0.01844
H         -2.36077       -1.90731       -1.63934
H         -2.64619       -2.09602        0.05908
H         -0.99946       -1.86761       -0.55184
H         -2.20398        2.47537       -0.54233
H         -0.44653        2.41932       -0.57645
H         -1.29607        2.58623        0.96365
H         -0.35591        0.77184        1.79826
H          1.34147        1.99147        0.90866
H          3.56533        2.00441       -0.10444
H          4.48779       -0.06047       -1.10880
H          3.15705       -2.14065       -1.04879
H          0.92440       -2.14966       -0.06865
H         -1.07779       -2.09724        1.48510
H         -2.22894       -0.83956        1.93264
H         -0.76253       -1.08460        2.84106
