28
../min.c.75.o.60.log	Energy: -350352.5312037
N          1.54264        0.38856       -0.12645
O          1.38326       -1.85177        0.23946
C          3.50409       -1.02829       -0.48042
C          2.01903       -0.89547       -0.18725
C          0.49909        0.62348        0.89440
C          0.57252        2.05269        1.43676
C         -0.87226        0.21736        0.36396
C         -1.39481       -1.02308        0.74713
C         -2.64391       -1.44031        0.30835
C         -3.40175       -0.62130       -0.52584
C         -2.90431        0.62006       -0.89775
C         -1.65406        1.04046       -0.44520
C          1.61993        1.31756       -1.24652
H          3.90089       -0.26272       -1.13161
H          3.72550       -2.00747       -0.88265
H          3.99514       -0.93387        0.48258
H          2.38999        1.00196       -1.93570
H          1.86770        2.31440       -0.90719
H          0.68575        1.34894       -1.79438
H          0.74076       -0.04245        1.70726
H         -0.81049       -1.66985        1.37010
H         -3.02352       -2.39944        0.61252
H         -4.36800       -0.94326       -0.87139
H         -3.48678        1.26834       -1.52834
H         -1.30991        2.01960       -0.72480
H          0.29367        2.80442        0.70938
H          1.57866        2.26888        1.78025
H         -0.10524        2.14784        2.27777
