28
../min.c.0.o.225.log	Energy: -350350.0633765
N          1.34690       -0.38941       -0.26283
O          3.52094       -0.94441       -0.64217
C          3.09881        0.44922        1.24830
C          2.69069       -0.30875       -0.00386
C          0.49258        0.73248        0.18195
C          0.77727        1.99661       -0.63238
C         -0.98100        0.34321        0.11900
C         -1.60981       -0.08016        1.29543
C         -2.94737       -0.45046        1.29891
C         -3.69529       -0.38176        0.12517
C         -3.09438        0.07324       -1.04043
C         -1.74570        0.42787       -1.04356
C          0.68993       -1.62476       -0.67012
H          2.86225        1.50374        1.23327
H          4.16736        0.33846        1.36235
H          2.60036        0.00365        2.10260
H          1.46366       -2.34322       -0.89951
H          0.08705       -1.49062       -1.55614
H          0.06745       -2.01519        0.12311
H          0.69455        0.94860        1.22276
H         -1.04427       -0.13354        2.20936
H         -3.40760       -0.78507        2.21140
H         -4.73258       -0.66422        0.12702
H         -3.66371        0.14418       -1.94981
H         -1.30128        0.76273       -1.96220
H          0.61219        1.82590       -1.68876
H          1.80696        2.31518       -0.52129
H          0.13732        2.81022       -0.30745
