28
../min.c.30.o.210.log	Energy: -350355.6019033
N         -1.35962        0.04890        0.45533
O         -3.52062       -0.42362        0.98937
C         -2.88192       -0.82252       -1.27497
C         -2.63711       -0.33968        0.14487
C         -0.48233        0.56160       -0.61882
C         -0.70844        2.05810       -0.84589
C          0.97225        0.19105       -0.34706
C          1.38364       -1.12342       -0.59518
C          2.68784       -1.52523       -0.34274
C          3.61583       -0.61465        0.15861
C          3.22610        0.69678        0.39319
C          1.91393        1.09583        0.14087
C         -0.79634       -0.07256        1.79381
H         -2.83974       -0.02870       -2.01136
H         -3.87367       -1.25018       -1.29610
H         -2.15824       -1.58159       -1.54598
H         -1.60099       -0.30574        2.47362
H         -0.33857        0.85610        2.11191
H         -0.05336       -0.85707        1.82933
H         -0.73948        0.05693       -1.53496
H          0.67449       -1.83725       -0.97748
H          2.98137       -2.54140       -0.53680
H          4.62655       -0.92424        0.35459
H          3.93462        1.41092        0.77296
H          1.63829        2.11531        0.33423
H         -0.54412        2.63162        0.05905
H         -1.73390        2.23280       -1.15362
H         -0.05165        2.43736       -1.62177
