28
../min.c.345.o.210.log	Energy: -350350.6269128
N          1.33393        0.46886       -0.16711
O          3.43326        1.24906        0.23600
C          3.27041       -1.03100       -0.44891
C          2.69233        0.31911       -0.05900
C          0.47783       -0.73612       -0.12933
C          0.79452       -1.59726        1.09555
C         -0.99467       -0.34646       -0.04693
C         -1.81648       -0.60827       -1.14905
C         -3.16977       -0.29589       -1.12373
C         -3.72814        0.30087        0.00355
C         -2.93539        0.52075        1.12155
C         -1.57574        0.21226        1.09050
C          0.69705        1.74696       -0.45765
H          2.58917       -1.70300       -0.93977
H          3.71195       -1.51830        0.41100
H          4.08538       -0.80740       -1.12772
H          1.47844        2.46113       -0.67225
H          0.11782        2.12232        0.37354
H          0.05330        1.65505       -1.32098
H          0.59940       -1.31660       -1.03608
H         -1.39436       -1.05503       -2.03205
H         -3.78140       -0.49787       -1.98486
H         -4.77267        0.55488        0.02031
H         -3.35961        0.95645        2.00827
H         -0.97712        0.41721        1.95892
H          0.77936       -0.99132        1.99286
H          1.75175       -2.08920        1.05022
H          0.04323       -2.37253        1.20095
