28
../min.c.30.o.60.log	Energy: -350353.0948204
N         -1.40139        0.20036        0.38679
O         -2.37685       -1.11669       -1.19189
C         -3.76531       -0.42331        0.62077
C         -2.43832       -0.54670       -0.10924
C         -0.46088        0.66770       -0.65404
C         -0.60353        2.17342       -0.88779
C          0.96220        0.22378       -0.33046
C          1.31190       -1.11240       -0.55617
C          2.58549       -1.57839       -0.26247
C          3.55297       -0.70574        0.23241
C          3.22595        0.62691        0.44183
C          1.93905        1.08673        0.16406
C         -0.89384        0.05064        1.74457
H         -3.67326       -0.27756        1.68719
H         -4.38315       -1.28687        0.41759
H         -4.25107        0.45395        0.20549
H         -0.20871       -0.78322        1.83381
H         -1.71306       -0.10036        2.43365
H         -0.37767        0.95279        2.04120
H         -0.73818        0.16955       -1.56349
H          0.57095       -1.78593       -0.95078
H          2.83000       -2.61126       -0.43598
H          4.54425       -1.06189        0.44871
H          3.96522        1.31095        0.81923
H          1.71367        2.12290        0.33435
H         -0.43637        2.75191        0.01483
H         -1.60829        2.39206       -1.23295
H          0.09621        2.50817       -1.64592
