28
../min.c.60.o.240.log	Energy: -350345.7347209
N         -1.40147        0.15206        0.37496
O         -3.66227       -0.03640        0.19704
C         -2.36261       -1.72536       -0.87655
C         -2.54357       -0.41544       -0.12796
C         -0.43955        0.74918       -0.57607
C         -0.59236        2.27101       -0.62979
C          0.97425        0.25049       -0.29426
C          1.16949       -1.11990       -0.08810
C          2.43653       -1.63524        0.14714
C          3.53996       -0.78562        0.19265
C          3.35998        0.57680       -0.00269
C          2.08839        1.08776       -0.26080
C         -1.20187        0.40854        1.79551
H         -1.52387       -1.72615       -1.55976
H         -3.26829       -1.98335       -1.40755
H         -2.17364       -2.47818       -0.11732
H         -1.83967       -0.25399        2.36495
H         -1.44168        1.42751        2.08505
H         -0.17141        0.20338        2.04825
H         -0.71827        0.37665       -1.55649
H          0.32685       -1.78283       -0.09294
H          2.56356       -2.69197        0.30172
H          4.52119       -1.18122        0.38451
H          4.20277        1.24368        0.03398
H          1.97952        2.14441       -0.41459
H         -0.28078        2.74334        0.29500
H         -1.63309        2.51917       -0.80102
H         -0.00652        2.69308       -1.43933
