28
../min.c.120.o.300.log	Energy: -350351.2487222
N         -1.56349        0.23892        0.21449
O         -1.83769       -1.05149       -1.63971
C         -2.49534       -2.02020        0.43957
C         -2.01428       -0.87820       -0.43988
C         -0.48134        0.94177       -0.50750
C         -0.50607        2.44265       -0.20925
C          0.87652        0.34194       -0.15620
C          1.83004        0.20844       -1.17188
C          3.08961       -0.31203       -0.90773
C          3.43422       -0.68510        0.38949
C          2.49629       -0.56421        1.40558
C          1.22523       -0.05967        1.13244
C         -2.39833        1.02076        1.11745
H         -1.60289       -2.58075        0.69905
H         -3.15874       -2.66701       -0.11758
H         -2.96950       -1.70685        1.35857
H         -3.12156        0.37352        1.59376
H         -2.95051        1.79761        0.60253
H         -1.80492        1.46868        1.90020
H         -0.64580        0.81367       -1.56362
H          1.57309        0.48911       -2.17840
H          3.80201       -0.41967       -1.70621
H          4.41203       -1.08117        0.59758
H          2.74543       -0.86248        2.40853
H          0.50407        0.01129        1.92676
H         -0.31927        2.66703        0.83313
H         -1.44043        2.89982       -0.51066
H          0.28371        2.91986       -0.77992
