28
../min.c.45.o.30.log	Energy: -350361.0831260
N         -1.42023        0.30519        0.31575
O         -2.40711       -0.87200       -1.36314
C         -3.55103       -0.86406        0.73106
C         -2.39622       -0.51274       -0.19198
C         -0.41984        0.79477       -0.65680
C         -0.48229        2.31811       -0.78993
C          0.96355        0.24208       -0.32864
C          1.21116       -1.11602       -0.55850
C          2.44750       -1.67699       -0.27114
C          3.47139       -0.88606        0.24661
C          3.24289        0.46468        0.47036
C          1.99763        1.02355        0.18459
C         -1.06675        0.33615        1.72914
H         -3.23653       -1.51659        1.53876
H         -4.30123       -1.37151        0.14361
H         -3.97314        0.03362        1.16778
H         -0.46421       -0.51781        2.01917
H         -1.95481        0.36738        2.34416
H         -0.49931        1.23269        1.93149
H         -0.71164        0.37760       -1.60274
H          0.42723       -1.72840       -0.96894
H          2.61617       -2.72267       -0.45762
H          4.43169       -1.31756        0.46552
H          4.02707        1.08647        0.86440
H          1.84987        2.07237        0.36244
H         -0.29488        2.83261        0.14683
H         -1.46987        2.60620       -1.13142
H          0.24409        2.66439       -1.51715
