28
../min.c.0.o.165.log	Energy: -350348.5726511
N          1.34759       -0.34801       -0.34681
O          3.30544       -1.47603       -0.07704
C          3.32834        0.83320        0.52396
C          2.65721       -0.44394        0.04696
C          0.51036        0.60057        0.41841
C          0.73216        2.03781       -0.05838
C         -0.96950        0.27841        0.23647
C         -1.61797       -0.46234        1.23114
C         -2.96815       -0.76852        1.13036
C         -3.69991       -0.34791        0.02197
C         -3.07292        0.39967       -0.96533
C         -1.71984        0.71791       -0.85315
C          0.67148       -1.38623       -1.11398
H          3.33811        1.56328       -0.27166
H          4.34799        0.56955        0.76809
H          2.87121        1.26410        1.40265
H          1.43358       -1.99312       -1.57965
H          0.06130       -0.94050       -1.88348
H          0.05474       -2.02841       -0.49910
H          0.73116        0.51368        1.47448
H         -1.06104       -0.80083        2.08732
H         -3.44724       -1.33720        1.90718
H         -4.74405       -0.59018       -0.06097
H         -3.62827        0.73994       -1.82088
H         -1.26101        1.29902       -1.63095
H          0.84089        2.06225       -1.13619
H          1.59623        2.51479        0.36904
H         -0.11784        2.65618        0.20753
