28
../min.c.0.o.195.log	Energy: -350352.8286957
N          1.33722       -0.47305       -0.06863
O          3.46591       -1.25435       -0.26000
C          3.22467        0.90694        0.72230
C          2.69594       -0.36291        0.07660
C          0.49008        0.70687        0.20790
C          0.78455        1.83854       -0.77942
C         -0.98783        0.33998        0.11784
C         -1.69012        0.10517        1.30538
C         -3.04125       -0.21211        1.28746
C         -3.72067       -0.31047        0.07502
C         -3.04074       -0.06299       -1.10955
C         -1.68785        0.27436       -1.08595
C          0.67069       -1.73392       -0.36781
H          2.52686        1.46026        1.32341
H          3.64002        1.55631       -0.03809
H          4.05283        0.59599        1.34711
H          1.43539       -2.49127       -0.44802
H          0.13316       -1.69224       -1.30432
H         -0.01556       -2.00500        0.42087
H          0.65072        1.04862        1.22006
H         -1.17432        0.16840        2.24765
H         -3.56171       -0.38857        2.21179
H         -4.76512       -0.56470        0.05893
H         -3.55578       -0.12377       -2.05144
H         -1.18782        0.46147       -2.01749
H          0.74760        1.47039       -1.79719
H          1.75418        2.28631       -0.63589
H          0.04679        2.62714       -0.67571
