28
../min.c.90.o.255.log	Energy: -350338.0376378
N          1.38843       -0.22844        0.46027
O          3.24530        0.35813       -0.71718
C          2.26223        2.07389        0.61850
C          2.36088        0.65803        0.07571
C          0.49809       -0.53155       -0.68067
C          0.73389       -1.95181       -1.19976
C         -0.94742       -0.18133       -0.34178
C         -1.42330        1.09018       -0.68147
C         -2.72108        1.47462       -0.37441
C         -3.57699        0.58973        0.27817
C         -3.12201       -0.67882        0.61067
C         -1.81860       -1.06264        0.29680
C          1.61682       -1.27995        1.44298
H          1.31600        2.50797        0.31302
H          3.08445        2.67398        0.25689
H          2.26006        2.05290        1.70395
H          2.11411       -0.85509        2.30777
H          2.22684       -2.09741        1.07015
H          0.66163       -1.66291        1.77315
H          0.79035        0.13373       -1.48111
H         -0.77735        1.77972       -1.19661
H         -3.06740        2.45563       -0.64719
H         -4.58332        0.88505        0.51501
H         -3.77642       -1.37398        1.10580
H         -1.49622       -2.05625        0.54920
H          0.46696       -2.71423       -0.47879
H          1.78075       -2.06909       -1.45107
H          0.14306       -2.12798       -2.09311
