28
../min.c.90.o.270.log	Energy: -350341.9204570
N         -1.39453        0.23046        0.45195
O         -3.01049       -0.40770       -1.01768
C         -2.48388       -1.95779        0.71847
C         -2.37443       -0.61916        0.00775
C         -0.48188        0.59704       -0.65214
C         -0.67803        2.05745       -1.06556
C          0.95055        0.18870       -0.32297
C          1.36393       -1.10996       -0.64109
C          2.65162       -1.54141       -0.35600
C          3.56143       -0.67652        0.24933
C          3.16805        0.61755        0.56142
C          1.87113        1.04522        0.27899
C         -1.61285        1.21066        1.50794
H         -1.61047       -2.53675        0.43476
H         -3.38042       -2.47916        0.41523
H         -2.45558       -1.84700        1.79678
H         -2.13543        0.74016        2.33346
H         -2.19782        2.06372        1.17860
H         -0.65606        1.55141        1.87859
H         -0.77951        0.00309       -1.49967
H          0.67568       -1.78302       -1.12258
H          2.94953       -2.54273       -0.61169
H          4.56161       -1.00698        0.46500
H          3.86379        1.29637        1.02177
H          1.59475        2.05557        0.51891
H         -0.42056        2.76112       -0.28365
H         -1.71545        2.21069       -1.33627
H         -0.06224        2.29127       -1.92835
