28
../min.c.120.o.330.log	Energy: -350357.4543024
N         -1.54095        0.27094        0.12526
O         -1.46409       -1.56248       -1.22049
C         -2.97832       -1.67108        0.62060
C         -1.95345       -0.97790       -0.26154
C         -0.44317        0.84158       -0.68441
C         -0.48498        2.37133       -0.66681
C          0.90619        0.31283       -0.20844
C          1.83263       -0.11174       -1.16763
C          3.07700       -0.60014       -0.79399
C          3.44440       -0.62348        0.54988
C          2.53972       -0.19471        1.51136
C          1.27370        0.25285        1.13501
C         -2.39227        1.19444        0.86416
H         -2.69189       -1.61533        1.66412
H         -3.02781       -2.70479        0.31279
H         -3.96401       -1.23024        0.51319
H         -3.04466        0.64369        1.52480
H         -3.01357        1.80127        0.21454
H         -1.79640        1.84470        1.48441
H         -0.58646        0.51419       -1.70202
H          1.55847       -0.10013       -2.20763
H          3.76348       -0.94630       -1.54603
H          4.41411       -0.98616        0.84050
H          2.80621       -0.22029        2.55313
H          0.57539        0.55532        1.89540
H         -0.28186        2.78763        0.31125
H         -1.43014        2.75644       -1.02929
H          0.28976        2.73946       -1.33121
