28
../min.c.90.o.45.log	Energy: -350354.3073429
N          1.58813        0.33481       -0.02387
O          1.14499       -1.86910        0.32941
C          3.29657       -1.34122       -0.55737
C          1.88024       -1.00080       -0.12477
C          0.49660        0.69882        0.90478
C          0.58229        2.17420        1.30242
C         -0.85443        0.27285        0.33894
C         -1.51787       -0.80437        0.93729
C         -2.76581       -1.21559        0.48846
C         -3.37345       -0.56403       -0.58215
C         -2.73587        0.51862       -1.17217
C         -1.49093        0.94040       -0.70639
C          1.97455        1.31029       -1.03516
H          3.41657       -1.33450       -1.63643
H          3.51179       -2.33896       -0.20415
H          3.99985       -0.63632       -0.13278
H          2.76057        0.90390       -1.65507
H          2.35265        2.21523       -0.58114
H          1.14441        1.56067       -1.68510
H          0.66929        0.11110        1.79409
H         -1.04261       -1.33547        1.73896
H         -3.25475       -2.04928        0.96015
H         -4.33485       -0.88738       -0.93961
H         -3.20336        1.04198       -1.98747
H         -1.03596        1.79994       -1.16426
H          0.36141        2.85038        0.48639
H          1.56889        2.40709        1.68854
H         -0.14192        2.36565        2.08626
