28
../min.c.345.o.225.log	Energy: -350349.1536842
N          1.33499        0.44429       -0.17237
O          3.42838        1.21182        0.28263
C          3.27802       -1.01062       -0.57322
C          2.69255        0.29287       -0.05633
C          0.47132       -0.74070        0.01787
C          0.80964       -1.46355        1.32370
C         -1.00029       -0.33899        0.01382
C         -1.79449       -0.72900       -1.07050
C         -3.15149       -0.43680       -1.10607
C         -3.73916        0.28266       -0.06829
C         -2.96797        0.65777        1.02319
C         -1.60984        0.34392        1.06531
C          0.71150        1.67021       -0.65401
H          2.56760       -1.78357       -0.80641
H          4.01804       -1.39178        0.11958
H          3.80351       -0.74300       -1.48435
H          1.50077        2.35798       -0.92235
H          0.09305        2.14758        0.09206
H          0.10954        1.46512       -1.52898
H          0.59521       -1.43006       -0.80971
H         -1.35015       -1.27191       -1.88611
H         -3.74400       -0.74958       -1.94722
H         -4.78631        0.52384       -0.10178
H         -3.41289        1.19765        1.83970
H         -1.03041        0.65136        1.91672
H          0.71118       -0.79295        2.16815
H          1.81948       -1.85187        1.33355
H          0.13463       -2.29998        1.46986
