28
../min.c.15.o.270.log	Energy: -350335.0021075
N         -1.32846       -0.22838        0.32866
O         -3.31701        0.87726        0.28843
C         -3.38314       -1.42704       -0.32811
C         -2.68498       -0.16193        0.14208
C         -0.45727        0.37099       -0.70484
C         -0.79283        1.84902       -0.91699
C          1.01266        0.14781       -0.36362
C          1.63379       -1.01982       -0.82127
C          2.96894       -1.27664       -0.54330
C          3.71898       -0.36136        0.19269
C          3.12161        0.81123        0.63419
C          1.77953        1.06523        0.35311
C         -0.71944       -0.60153        1.59886
H         -2.99462       -1.69760       -1.30576
H         -4.45080       -1.27260       -0.38787
H         -3.16086       -2.25240        0.34092
H         -1.48526       -1.03567        2.23421
H         -0.31065        0.25207        2.12874
H          0.05787       -1.33901        1.46729
H         -0.64207       -0.15054       -1.64040
H          1.06294       -1.73301       -1.39004
H          3.42567       -2.18216       -0.90120
H          4.75392       -0.55810        0.40759
H          3.69195        1.53097        1.19361
H          1.34032        1.97996        0.70416
H         -0.77447        2.39433        0.01825
H         -1.78296        1.96556       -1.33219
H         -0.08269        2.30300       -1.60220
