28
../min.c.0.o.120.log	Energy: -350335.9636258
N         -1.34668       -0.09970        0.49146
O         -2.76525       -1.61466       -0.44178
C         -3.70041        0.51507        0.09112
C         -2.56085       -0.48443       -0.01564
C         -0.51124        0.50331       -0.56907
C         -0.81477        1.99506       -0.72638
C          0.96702        0.23317       -0.30700
C          1.54367       -0.91538       -0.86097
C          2.88159       -1.21804       -0.64934
C          3.68303       -0.35909        0.09990
C          3.13252        0.80125        0.62648
C          1.78327        1.09212        0.42744
C         -0.67063       -0.81868        1.56365
H         -4.12686        0.38028        1.08242
H         -4.46627        0.29805       -0.64106
H         -3.37719        1.54060        0.02057
H         -1.42293       -1.14097        2.27508
H          0.00133       -0.14824        2.07384
H         -0.12358       -1.69564        1.23763
H         -0.73776        0.01054       -1.50911
H          0.93336       -1.58361       -1.44281
H          3.30066       -2.11275       -1.07384
H          4.72149       -0.58789        0.25875
H          3.74299        1.47830        1.19688
H          1.37817        1.99231        0.85198
H         -0.79943        2.49837        0.23297
H         -1.78796        2.15421       -1.17139
H         -0.08647        2.46535       -1.37905
