28
../min.c.15.o.75.log	Energy: -350346.7105771
N         -1.37763        0.07292        0.43767
O         -2.51311       -1.14735       -1.11153
C         -3.81755       -0.12536        0.60553
C         -2.50938       -0.51997       -0.05929
C         -0.48231        0.55458       -0.63598
C         -0.71544        2.04005       -0.92102
C          0.96961        0.21018       -0.31944
C          1.43621       -1.07011       -0.63842
C          2.74625       -1.44188       -0.37088
C          3.62974       -0.52861        0.20115
C          3.18684        0.75222        0.50128
C          1.86650        1.11815        0.24148
C         -0.77283       -0.31043        1.70686
H         -3.72968       -0.00542        1.67794
H         -4.59631       -0.83688        0.36956
H         -4.08282        0.84068        0.18773
H         -1.55845       -0.52473        2.42304
H         -0.18392        0.50440        2.09937
H         -0.14481       -1.18797        1.61949
H         -0.72865        0.00883       -1.52869
H          0.75977       -1.77676       -1.08742
H          3.08185       -2.43331       -0.61810
H          4.64737       -0.81207        0.40179
H          3.86183        1.46871        0.93467
H          1.54978        2.11630        0.48092
H         -0.57845        2.65299       -0.03680
H         -1.73314        2.19072       -1.26662
H         -0.04183        2.38992       -1.69597
