28
../min.c.15.o.195.log	Energy: -350355.5625868
N          1.35848       -0.28560       -0.37261
O          3.46722       -1.11203       -0.59318
C          3.11340        0.39403        1.22365
C          2.67525       -0.38594       -0.00463
C          0.49442        0.68253        0.33621
C          0.71433        2.10302       -0.18919
C         -0.97313        0.28628        0.20889
C         -1.51672       -0.57527        1.16849
C         -2.85854       -0.93114        1.13314
C         -3.67698       -0.47022        0.10471
C         -3.15715        0.40366       -0.84019
C         -1.81574        0.78110       -0.78548
C          0.72522       -1.20137       -1.31279
H          2.65420       -0.03158        2.11000
H          2.88574        1.44600        1.19611
H          4.18358        0.27033        1.30580
H          1.50674       -1.78245       -1.77698
H          0.19382       -0.66000       -2.08324
H          0.03668       -1.86725       -0.81230
H          0.72334        0.65804        1.39003
H         -0.88905       -0.95345        1.95680
H         -3.25789       -1.58649        1.88641
H         -4.71118       -0.76118        0.06450
H         -3.78472        0.78801       -1.62412
H         -1.44514        1.45780       -1.53077
H          0.54148        2.15042       -1.25710
H          1.72636        2.44573       -0.02733
H          0.04271        2.80146        0.29905
