28
../min.c.45.o.210.log	Energy: -350356.1588088
N         -1.38535        0.15753        0.43183
O         -3.55812       -0.38718        0.83274
C         -2.64325       -1.14926       -1.23524
C         -2.59255       -0.38779        0.07877
C         -0.46520        0.61886       -0.62969
C         -0.63646        2.11673       -0.89287
C          0.96572        0.18665       -0.32534
C          1.26187       -1.18112       -0.31649
C          2.54763       -1.63357       -0.05623
C          3.56921       -0.72366        0.20947
C          3.28993        0.63601        0.20329
C          1.99842        1.08693       -0.06753
C         -0.97127        0.33901        1.81717
H         -2.71675       -0.49489       -2.09703
H         -3.53508       -1.75869       -1.20731
H         -1.77644       -1.78400       -1.35830
H         -1.81115        0.10938        2.45362
H         -0.66770        1.36223        2.00705
H         -0.14459       -0.31764        2.05255
H         -0.73818        0.11371       -1.54011
H          0.48097       -1.89560       -0.50649
H          2.75327       -2.68912       -0.05674
H          4.56516       -1.07255        0.41498
H          4.06983        1.34830        0.40502
H          1.81117        2.14385       -0.06929
H         -0.42446        2.71510       -0.01448
H         -1.66192        2.31640       -1.18356
H          0.01398        2.44552       -1.69652
