28
../min.c.45.o.90.log	Energy: -350343.4083907
N         -1.43873        0.29478        0.41161
O         -1.90183       -1.73896       -0.49823
C         -3.77579       -0.36478        0.04414
C         -2.29487       -0.70479        0.02791
C         -0.50731        0.70829       -0.65975
C         -0.63310        2.20570       -0.94982
C          0.91121        0.24207       -0.34775
C          1.20232       -1.12305       -0.44913
C          2.47206       -1.60716       -0.16751
C          3.48636       -0.73086        0.21347
C          3.21394        0.62679        0.31010
C          1.93599        1.10891        0.02888
C         -1.01786        0.49257        1.79267
H         -4.06351        0.15574        0.95041
H         -4.37728       -1.25252       -0.09030
H         -3.94448        0.31459       -0.78612
H         -0.25514       -0.21561        2.09841
H         -1.87370        0.38665        2.45078
H         -0.63140        1.49513        1.91143
H         -0.81932        0.18517       -1.55105
H          0.42257       -1.80319       -0.73116
H          2.67174       -2.66067       -0.25058
H          4.47249       -1.10207        0.42905
H          3.98930        1.31372        0.59989
H          1.75683        2.16533        0.10517
H         -0.41532        2.81823       -0.08218
H         -1.64719        2.42988       -1.26104
H          0.04248        2.49572       -1.74738
