28
../min.c.15.o.345.log	Energy: -350358.2240175
N         -1.35224       -0.17312        0.22830
O         -3.16291        0.72629       -0.81618
C         -3.51379       -1.35579        0.29564
C         -2.67954       -0.15364       -0.11413
C         -0.41987        0.75268       -0.44986
C         -0.65830        2.19722       -0.00417
C          1.02406        0.30383       -0.24850
C          1.54388       -0.67371       -1.10451
C          2.85513       -1.11153       -0.97897
C          3.68351       -0.56746        0.00019
C          3.18755        0.41828        0.84228
C          1.86834        0.85232        0.71576
C         -0.79891       -1.09921        1.20797
H         -3.00366       -2.28331        0.06640
H         -4.44159       -1.30478       -0.25475
H         -3.74430       -1.34754        1.35569
H         -1.59098       -1.53166        1.79849
H         -0.14452       -0.57686        1.88937
H         -0.23763       -1.90285        0.74692
H         -0.64020        0.69460       -1.50787
H          0.91382       -1.09375       -1.86933
H          3.23363       -1.86597       -1.64544
H          4.70084       -0.90202        0.09567
H          3.81998        0.85414        1.59490
H          1.51142        1.61916        1.37667
H         -0.57637        2.29590        1.07344
H         -1.64995        2.50694       -0.29433
H          0.06620        2.86164       -0.46454
