28
../min.c.75.o.330.log	Energy: -350361.1022356
N         -1.36850        0.15082        0.33718
O         -2.59665       -0.53965       -1.44980
C         -3.37513       -1.23578        0.69581
C         -2.44104       -0.48200       -0.23602
C         -0.38361        0.71805       -0.60863
C         -0.52277        2.23936       -0.70054
C          1.01765        0.20054       -0.29952
C          1.26950       -1.16878       -0.44145
C          2.52625       -1.69641       -0.18050
C          3.56335       -0.86225        0.23233
C          3.32875        0.49852        0.37381
C          2.06487        1.02503        0.10910
C         -1.39259        0.68183        1.69402
H         -2.81162       -1.90696        1.33371
H         -4.06327       -1.80245        0.08696
H         -3.94088       -0.56263        1.33144
H         -1.80363       -0.04194        2.38305
H         -1.96886        1.59937        1.76839
H         -0.37668        0.88385        2.00297
H         -0.66002        0.32034       -1.56812
H          0.47488       -1.81900       -0.76251
H          2.69852       -2.75118       -0.30069
H          4.53806       -1.26881        0.43456
H          4.12228        1.15298        0.68807
H          1.91174        2.08215        0.22060
H         -0.30304        2.74399        0.23388
H         -1.53928        2.48501       -0.98634
H          0.14318        2.63799       -1.45829
