28
../min.c.30.o.255.log	Energy: -350341.5591681
N         -1.40386        0.23050        0.40676
O         -3.67324        0.09288        0.50368
C         -2.55553       -1.63364       -0.70634
C         -2.60937       -0.32329        0.06119
C         -0.48265        0.61529       -0.68394
C         -0.64122        2.09500       -1.04105
C          0.94799        0.20609       -0.34812
C          1.30121       -1.14290       -0.46672
C          2.58545       -1.57548       -0.16848
C          3.55757       -0.65947        0.22959
C          3.22571        0.68421        0.33514
C          1.93013        1.11275        0.04789
C         -0.87413        0.19504        1.76385
H         -1.87957       -1.63205       -1.54916
H         -3.54545       -1.90923       -1.04218
H         -2.20144       -2.38213       -0.00284
H         -1.70423        0.11633        2.45361
H         -0.34324        1.10999        1.99094
H         -0.20277       -0.64212        1.91665
H         -0.76281        0.05694       -1.56708
H          0.56341       -1.85943       -0.78177
H          2.83382       -2.61788       -0.25982
H          4.55570       -0.99155        0.45172
H          3.96751        1.40138        0.63798
H          1.70029        2.15775        0.13549
H         -0.45438        2.73830       -0.18881
H         -1.65859        2.28042       -1.36621
H          0.03383        2.37510       -1.84345
