28
../min.c.60.o.225.log	Energy: -350351.6773071
N         -1.41272        0.18055        0.38325
O         -3.64358       -0.26833        0.39687
C         -2.31427       -1.52034       -1.13928
C         -2.53916       -0.42598       -0.10931
C         -0.44283        0.75643       -0.57278
C         -0.56439        2.28102       -0.62792
C          0.96483        0.24473       -0.28366
C          1.13894       -1.12013       -0.02781
C          2.39933       -1.64803        0.21508
C          3.51748       -0.81661        0.21743
C          3.35887        0.54010       -0.02939
C          2.09319        1.06336       -0.29194
C         -1.21203        0.44998        1.80124
H         -1.40213       -1.44589       -1.70816
H         -3.16124       -1.58399       -1.80989
H         -2.27857       -2.44252       -0.56710
H         -1.85980       -0.19952        2.37175
H         -1.44531        1.47465        2.07344
H         -0.18289        0.24284        2.05674
H         -0.72307        0.40061       -1.55337
H          0.28481       -1.76847        0.00212
H          2.50972       -2.69993        0.40981
H          4.49369       -1.22168        0.41492
H          4.21315        1.19318       -0.02673
H          2.00184        2.11530       -0.48366
H         -0.23546        2.75229        0.29128
H         -1.60028        2.55290       -0.79440
H          0.02345        2.68579       -1.44441
