28
../min.c.30.o.345.log	Energy: -350360.8321093
N         -1.34698       -0.13216        0.24790
O         -3.08252        0.52934       -1.06689
C         -3.51132       -1.30691        0.39551
C         -2.64431       -0.20445       -0.18922
C         -0.40811        0.77752       -0.44299
C         -0.63989        2.23038       -0.02145
C          1.03016        0.30165       -0.26458
C          1.45540       -0.82105       -0.98382
C          2.75102       -1.30260       -0.85918
C          3.65931       -0.65828       -0.02156
C          3.25737        0.46914        0.68138
C          1.95299        0.94657        0.55754
C         -0.87037       -0.82655        1.43712
H         -2.98727       -2.25411        0.42816
H         -4.38560       -1.39522       -0.23226
H         -3.83599       -1.06260        1.40168
H         -1.69910       -1.12857        2.05784
H         -0.25355       -0.16371        2.02747
H         -0.28304       -1.70345        1.19190
H         -0.64851        0.70623       -1.49440
H          0.76139       -1.32136       -1.63686
H          3.05561       -2.16971       -1.41773
H          4.66472       -1.02742        0.07294
H          3.95160        0.98108        1.32358
H          1.66893        1.82183        1.11026
H         -0.52231        2.36271        1.04967
H         -1.64664        2.51865       -0.28865
H          0.05509        2.89356       -0.52625
