28
../min.c.15.o.90.log	Energy: -350341.1152042
N         -1.37866        0.08528        0.47851
O         -2.41170       -1.40299       -0.89854
C         -3.83587        0.01074        0.39274
C         -2.48570       -0.54790       -0.02438
C         -0.50492        0.56673       -0.61286
C         -0.74271        2.05247       -0.89255
C          0.95321        0.22386       -0.32443
C          1.40331       -1.07040       -0.60882
C          2.71950       -1.44017       -0.36678
C          3.61412       -0.52316        0.18009
C          3.19017        0.77369        0.43541
C          1.86930        1.14355        0.18395
C         -0.74885       -0.29640        1.73598
H         -3.87564        0.22138        1.45549
H         -4.63222       -0.66301        0.11048
H         -3.96029        0.95546       -0.12751
H         -0.14555       -1.19249        1.65384
H         -1.52429       -0.47424        2.47480
H         -0.13272        0.51275        2.09567
H         -0.76477        0.02126       -1.50443
H          0.71075       -1.78588       -1.01717
H          3.04334       -2.44071       -0.59186
H          4.63155       -0.81008        0.37704
H          3.87783        1.49729        0.83576
H          1.56717        2.15307        0.39206
H         -0.58966        2.66147       -0.00852
H         -1.76641        2.20702       -1.21803
H         -0.08414        2.40569       -1.67906
