28
../min.c.150.o.285.log	Energy: -350348.1969909
N          1.68802        0.16173       -0.15160
O          1.23007       -1.31820        1.51528
C          1.81650       -2.24967       -0.60198
C          1.62317       -1.10222        0.37526
C          0.63990        1.01562        0.44727
C          0.74337        2.45396       -0.06524
C         -0.74728        0.46864        0.12552
C         -1.66427        0.31802        1.17197
C         -2.95827       -0.12323        0.93211
C         -3.35286       -0.46394       -0.35997
C         -2.44916       -0.33355       -1.40548
C         -1.15989        0.14049       -1.16505
C          2.94082        0.79543       -0.54208
H          0.85462       -2.38927       -1.08468
H          2.08174       -3.15641       -0.07672
H          2.54623       -2.03293       -1.37255
H          3.62365        0.03789       -0.90743
H          3.42207        1.29928        0.29202
H          2.77774        1.50359       -1.33955
H          0.75669        1.03203        1.52249
H         -1.35748        0.54053        2.17808
H         -3.64779       -0.22775        1.75079
H         -4.34889       -0.82437       -0.54531
H         -2.74172       -0.59170       -2.40783
H         -0.46985        0.23657       -1.98471
H          0.66257        2.50206       -1.14567
H          1.66641        2.93495        0.23675
H         -0.07479        3.03171        0.34929
