28
../min.c.315.o.165.log	Energy: -350325.6621274
N          1.35959        0.58017        0.04833
O          3.57114        0.95089       -0.33896
C          2.99221       -1.22732        0.44496
C          2.67249        0.18902       -0.00311
C          0.49314       -0.44053       -0.57917
C          0.58880       -1.77495        0.16403
C         -0.97144       -0.18563       -0.23717
C         -1.92087       -0.26924       -1.26194
C         -3.27488       -0.11561       -0.99752
C         -3.70523        0.19031        0.29187
C         -2.77268        0.29591        1.31459
C         -1.41555        0.11452        1.04978
C          0.94265        1.97372       -0.03984
H          2.46468       -1.57248        1.30249
H          4.03820       -1.14761        0.73264
H          2.99020       -1.92800       -0.37019
H          1.76786        2.59252        0.27883
H          0.09426        2.14279        0.60174
H          0.67802        2.25940       -1.05427
H          0.64522       -0.51471       -1.64910
H         -1.59926       -0.47627       -2.26795
H         -3.98905       -0.19979       -1.79717
H         -4.75158        0.33204        0.49400
H         -3.08963        0.53122        2.31477
H         -0.70652        0.21534        1.85174
H          0.61374       -1.61834        1.22644
H          1.32628       -2.48235       -0.14386
H         -0.34050       -2.30334       -0.02562
