28
../min.c.315.o.30.log	Energy: -350352.7975116
N         -1.34205       -0.30532       -0.33520
O         -3.04700        1.14527        0.07384
C         -3.55348       -1.17202        0.33447
C         -2.62761       -0.00510        0.03436
C         -0.38022        0.81730       -0.36536
C         -0.66740        1.81752        0.75681
C          1.03796        0.31654       -0.11052
C          2.04825        0.69080       -1.00373
C          3.36744        0.31486       -0.79087
C          3.69830       -0.49046        0.29684
C          2.70397       -0.88148        1.18294
C          1.38640       -0.46838        0.98766
C         -0.98541       -1.52597       -1.04682
H         -4.03116       -1.50747       -0.58070
H         -4.32697       -0.81553        0.99987
H         -3.03815       -2.01112        0.78387
H         -1.87034       -2.08802       -1.30369
H         -0.32712       -2.15949       -0.46667
H         -0.48002       -1.27009       -1.97095
H         -0.41642        1.30868       -1.33199
H          1.80184        1.29333       -1.86052
H          4.13076        0.62545       -1.48199
H          4.71615       -0.80052        0.45144
H          2.94648       -1.49897        2.02938
H          0.62735       -0.77548        1.68518
H         -0.90979        1.29933        1.67661
H         -1.45917        2.50495        0.53077
H          0.23775        2.38847        0.94032
