28
../min.c.30.o.315.log	Energy: -350354.6512743
N         -1.34024       -0.21738        0.24188
O         -3.14983        0.74741       -0.74448
C         -3.47204       -1.42920        0.17900
C         -2.67197       -0.16335       -0.07893
C         -0.43080        0.66455       -0.52064
C         -0.67152        2.13530       -0.17261
C          1.02280        0.25980       -0.29662
C          1.53167       -0.82603       -1.01816
C          2.84661       -1.23940       -0.85731
C          3.68963       -0.56404        0.02314
C          3.20184        0.52260        0.73590
C          1.87809        0.93100        0.57597
C         -0.84669       -0.78944        1.48797
H         -2.85938       -2.30633        0.01687
H         -4.30873       -1.42704       -0.50430
H         -3.86672       -1.47121        1.18976
H         -1.65340       -1.29418        2.00066
H         -0.47203       -0.01580        2.14887
H         -0.05574       -1.50411        1.31217
H         -0.66769        0.51743       -1.56558
H          0.88892       -1.34971       -1.70437
H          3.21739       -2.07705       -1.42088
H          4.71043       -0.87929        0.14425
H          3.84379        1.05626        1.41378
H          1.52946        1.77657        1.13672
H         -0.61053        2.29908        0.89890
H         -1.65103        2.43881       -0.49973
H          0.06989        2.76822       -0.65096
