28
../min.c.315.o.315.log	Energy: -347403.4602738
N         -1.44524        0.30773       -0.16207
O         -2.89003       -1.44404       -0.01284
C         -3.75889        0.77840       -0.02358
C         -2.68490       -0.26587       -0.27863
C         -0.53087       -0.24111        0.86215
C          0.24149       -1.44618        0.32044
C          0.92119       -0.10124        0.41618
C          1.59805        1.08768        0.71101
C          2.92108        1.27064        0.33425
C          3.60023        0.26271       -0.34748
C          2.94279       -0.92378       -0.64207
C          1.61321       -1.10362       -0.26189
C         -1.10729        1.59475       -0.75616
H         -3.57862        1.34128        0.93290
H         -4.70926        0.22826        0.05758
H         -3.81934        1.52985       -0.85292
H         -2.00077        2.22223       -0.83193
H         -0.64350        1.48863       -1.76999
H         -0.39046        2.13437       -0.10114
H         -1.17978       -0.45258        1.71578
H          1.07534        1.87617        1.24722
H          3.42861        2.20077        0.57802
H          4.63666        0.40329       -0.64166
H          3.46247       -1.71899       -1.17009
H          1.12218       -2.04286       -0.49917
H          0.76881       -1.22916       -0.61458
H         -0.45643       -2.27157        0.13235
H          0.98455       -1.78571        1.04943
