28
../min.c.30.o.225.log	Energy: -350351.5104468
N         -1.38153        0.17397        0.43229
O         -3.58477       -0.15542        0.89665
C         -2.74089       -1.23929       -1.05461
C         -2.63036       -0.31306        0.14494
C         -0.48123        0.52751       -0.68609
C         -0.67379        1.98635       -1.10671
C          0.96140        0.16295       -0.35013
C          1.35028       -1.17802       -0.44607
C          2.64706       -1.57053       -0.14640
C          3.59271       -0.62336        0.24210
C          3.22535        0.71266        0.32495
C          1.91968        1.10218        0.02800
C         -0.83546        0.21073        1.78286
H         -2.75790       -0.71296       -2.00264
H         -3.67482       -1.77397       -0.95762
H         -1.91805       -1.94214       -1.06726
H         -1.65198        0.08443        2.47790
H         -0.36156        1.16243        1.98884
H         -0.10985       -0.57813        1.92931
H         -0.74635       -0.08151       -1.53547
H          0.63126       -1.91926       -0.74834
H          2.92332       -2.60706       -0.22231
H          4.59891       -0.92523        0.47068
H          3.94725        1.45397        0.61750
H          1.66196        2.14205        0.09889
H         -0.50641        2.66983       -0.28228
H         -1.69332        2.13618       -1.44570
H         -0.00220        2.24825       -1.91772
