28
../min.c.315.o.330.log	Energy: -350347.5274696
N         -1.34821       -0.40096       -0.38004
O         -2.53280        0.98778        0.97884
C         -3.67735       -0.95709        0.20308
C         -2.48975       -0.01162        0.27161
C         -0.36374        0.63246       -0.76629
C         -0.91208        2.03778       -0.50826
C          1.02585        0.26927       -0.25242
C          2.05654        0.09487       -1.18292
C          3.34880       -0.20253       -0.77264
C          3.63352       -0.36106        0.58198
C          2.62269       -0.18314        1.51650
C          1.32947        0.13304        1.10137
C         -0.97377       -1.79786       -0.55900
H         -3.82099       -1.37140       -0.78694
H         -4.55672       -0.40471        0.50029
H         -3.54190       -1.77442        0.90473
H         -1.84691       -2.43095       -0.58349
H         -0.32047       -2.13647        0.23622
H         -0.45142       -1.91763       -1.50011
H         -0.29257        0.54834       -1.84840
H          1.84924        0.20516       -2.23285
H          4.12710       -0.32722       -1.50411
H          4.63090       -0.60423        0.90099
H          2.83274       -0.28923        2.56573
H          0.55243        0.27411        1.83295
H         -0.90599        2.33591        0.52181
H         -1.90082        2.15638       -0.91865
H         -0.25590        2.71615       -1.05672
