28
../min.c.90.o.15.log	Energy: -350360.8204677
N          1.49797        0.35090       -0.07884
O          1.65009       -1.77123        0.72849
C          3.32443       -1.12003       -0.84213
C          2.06707       -0.89486       -0.01911
C          0.42490        0.69664        0.87787
C          0.51080        2.16737        1.29230
C         -0.93230        0.24279        0.34972
C         -1.38540       -1.03756        0.68734
C         -2.60962       -1.50685        0.23240
C         -3.41442       -0.69949       -0.56904
C         -2.98208        0.57644       -0.90346
C         -1.74954        1.04287       -0.44742
C          1.83805        1.33048       -1.10273
H          3.09491       -1.23388       -1.89645
H          3.77793       -2.03523       -0.49167
H          4.02420       -0.30078       -0.73185
H          2.36692        0.86561       -1.91839
H          2.45255        2.13425       -0.71117
H          0.93337        1.75639       -1.51645
H          0.63239        0.10657        1.75645
H         -0.76337       -1.66891        1.29112
H         -2.93609       -2.49503        0.50331
H         -4.36549       -1.05846       -0.92007
H         -3.59815        1.21236       -1.51432
H         -1.44873        2.04158       -0.70850
H          0.31520        2.86096        0.48480
H          1.49580        2.38272        1.69197
H         -0.21936        2.35857        2.07069
