28
../min.c.45.o.345.log	Energy: -350362.2687792
N         -1.33637       -0.14137        0.25788
O         -2.93281        0.24099       -1.31804
C         -3.58094       -1.13366        0.52168
C         -2.59992       -0.27347       -0.25724
C         -0.39722        0.73107       -0.47912
C         -0.64314        2.20534       -0.15014
C          1.04085        0.26422       -0.27683
C          1.43280       -0.95379       -0.84376
C          2.72941       -1.42682       -0.69848
C          3.66788       -0.68696        0.01815
C          3.29454        0.52574        0.58095
C          1.99200        0.99989        0.42853
C         -0.99596       -0.50349        1.62776
H         -3.19925       -2.13944        0.65537
H         -4.49935       -1.17356       -0.04458
H         -3.78597       -0.71608        1.50111
H         -1.57006       -1.35718        1.95106
H         -1.17774        0.31244        2.32336
H          0.04568       -0.77264        1.68357
H         -0.63821        0.59126       -1.52119
H          0.71333       -1.53085       -1.39798
H          3.00976       -2.36432       -1.14471
H          4.67314       -1.05137        0.13116
H          4.01075        1.10811        1.13270
H          1.73070        1.94298        0.86976
H         -0.51012        2.41789        0.90592
H         -1.65809        2.46233       -0.42348
H          0.03064        2.84374       -0.71185
