28
../min.c.30.o.270.log	Energy: -350337.8417746
N         -1.32962       -0.18123        0.36056
O         -3.35012        0.80082       -0.00213
C         -3.26813       -1.56929       -0.26700
C         -2.67064       -0.21539        0.07796
C         -0.45917        0.45914       -0.64868
C         -0.75341        1.95707       -0.75737
C          1.00896        0.16788       -0.35417
C          1.52990       -1.07652       -0.72657
C          2.85869       -1.39695       -0.48747
C          3.70176       -0.47270        0.12676
C          3.20049        0.76843        0.49429
C          1.86412        1.08594        0.25354
C         -0.79745       -0.35485        1.70601
H         -2.82572       -1.90386       -1.20091
H         -4.34036       -1.49519       -0.37742
H         -3.01672       -2.30802        0.48689
H         -1.56530       -0.79818        2.33137
H         -0.51566        0.59010        2.16187
H          0.05749       -1.01385        1.70739
H         -0.68821       -0.00091       -1.60533
H          0.88568       -1.79637       -1.20085
H          3.23890       -2.35878       -0.78248
H          4.73254       -0.71807        0.30932
H          3.84150        1.49243        0.96466
H          1.50278        2.05370        0.54431
H         -0.69648        2.43851        0.21216
H         -1.74839        2.12344       -1.13782
H         -0.04460        2.44055       -1.42386
