28
../min.c.210.o.120.log	Energy: -346933.9619306
N         -1.80856       -0.24794        0.09975
O         -0.89823       -1.74194        1.55497
C         -0.12322       -0.92258       -0.54796
C         -1.19029       -1.43252        0.40616
C         -0.95860        0.96098        0.05082
C         -1.80926        2.22586       -0.08571
C          0.51794        0.57872        0.02407
C          0.88215       -0.63046       -0.57912
C          2.21446       -1.00987       -0.67637
C          3.21479       -0.18781       -0.16366
C          2.86841        1.01686        0.43261
C          1.53141        1.40673        0.50441
C         -3.12803       -0.17714       -0.51472
H         -0.43583       -1.40071       -1.61078
H          0.64905       -1.55946        0.07481
H          0.46713        0.04024       -0.93251
H         -3.81218       -0.88106       -0.02825
H         -3.09938       -0.38955       -1.61818
H         -3.56628        0.82739       -0.36683
H         -0.42769        0.39944       -0.61832
H          0.37043       -1.57934       -1.14085
H          2.47290       -1.94849       -1.15452
H          4.25814       -0.48407       -0.23246
H          3.64276        1.66976        0.82768
H          1.28957        2.36189        0.95447
H         -2.12229        2.62816        0.88188
H         -2.70468        2.00524       -0.66718
H         -1.25449        3.00909       -0.61014
