28
../min.c.60.o.195.log	Energy: -350358.8646383
N         -1.40206        0.14415        0.43791
O         -3.50421       -0.69978        0.65502
C         -2.48065       -0.96230       -1.48453
C         -2.52736       -0.47007       -0.04768
C         -0.45008        0.74482       -0.52086
C         -0.57437        2.27011       -0.53644
C          0.96319        0.22876       -0.26925
C          1.15455       -1.15046       -0.12882
C          2.42097       -1.68058        0.07458
C          3.52750       -0.83761        0.15577
C          3.35141        0.53310        0.02581
C          2.08007        1.06009       -0.19926
C         -1.17658        0.37941        1.85826
H         -2.60817       -0.15634       -2.19878
H         -3.31167       -1.64293       -1.60384
H         -1.56082       -1.48396       -1.71182
H         -1.76487       -0.32871        2.42105
H         -1.47210        1.37979        2.15747
H         -0.12904        0.23741        2.08036
H         -0.72289        0.41125       -1.50363
H          0.30809       -1.81116       -0.15968
H          2.54458       -2.74376        0.17850
H          4.50815       -1.24541        0.32322
H          4.19659        1.19482        0.09023
H          1.97586        2.12337       -0.30056
H         -0.26046        2.71901        0.39907
H         -1.60923        2.54557       -0.70833
H          0.02211        2.69868       -1.33427
