28
../min.c.15.o.210.log	Energy: -350354.4086492
N         -1.35236       -0.17584        0.42718
O         -3.50640       -0.72889        0.90950
C         -3.04814       -0.15392       -1.36067
C         -2.67413       -0.33634        0.10078
C         -0.49019        0.62525       -0.46793
C         -0.74812        2.12257       -0.28437
C          0.97721        0.25843       -0.27008
C          1.50477       -0.80489       -1.01146
C          2.83060       -1.18893       -0.86856
C          3.66864       -0.49869        0.00519
C          3.16686        0.57802        0.72328
C          1.82998        0.95109        0.58810
C         -0.71584       -0.88345        1.53068
H         -2.87149        0.84243       -1.74148
H         -4.10176       -0.37475       -1.44969
H         -2.48747       -0.85560       -1.96831
H         -1.49521       -1.36189        2.10392
H         -0.18367       -0.20429        2.18290
H         -0.02725       -1.63281        1.16748
H         -0.71636        0.37062       -1.49212
H          0.86814       -1.34275       -1.69262
H          3.21267       -2.01574       -1.44021
H          4.69750       -0.79134        0.11278
H          3.80577        1.12602        1.39235
H          1.46696        1.78295        1.16140
H         -0.59274        2.42583        0.74394
H         -1.77302        2.37067       -0.53404
H         -0.09416        2.70778       -0.92236
