28
../min.c.345.o.165.log	Energy: -350343.3537704
N          1.34606       -0.44047       -0.26536
O          3.38432       -1.37767        0.11614
C          3.28698        1.00476        0.21015
C          2.67840       -0.37852        0.05147
C          0.50833        0.54362        0.45304
C          0.71729        1.95381       -0.10362
C         -0.97236        0.25793        0.22324
C         -1.73397       -0.21887        1.29617
C         -3.09413       -0.45942        1.15778
C         -3.71923       -0.25452       -0.07025
C         -2.97562        0.21606       -1.14374
C         -1.61569        0.48511       -0.99248
C          0.70246       -1.65246       -0.75572
H          3.08347        1.62946       -0.64154
H          4.35499        0.84402        0.27717
H          2.97796        1.49787        1.11980
H          1.47911       -2.31221       -1.11270
H          0.03781       -1.41810       -1.57080
H          0.14682       -2.17108        0.01624
H          0.70354        0.50335        1.51803
H         -1.25975       -0.39635        2.24539
H         -3.66259       -0.81702        1.99768
H         -4.76990       -0.45262       -0.18265
H         -3.44607        0.38422       -2.09586
H         -1.06309        0.85507       -1.83667
H          0.94163        1.91381       -1.16123
H          1.47896        2.53186        0.38688
H         -0.19464        2.52737        0.01240
