28
../min.c.240.o.0.log	Energy: -350359.0354192
N         -1.56310       -0.16073       -0.43798
O         -1.07410        0.60474        1.64848
C         -2.86998       -0.95931        1.49727
C         -1.74566       -0.11573        0.91996
C         -0.47967        0.64058       -1.04659
C         -0.80656        2.13484       -0.99664
C          0.87609        0.22650       -0.48321
C          1.41226       -1.00592       -0.87341
C          2.65170       -1.42614       -0.41101
C          3.37493       -0.62934        0.47409
C          2.86264        0.60267        0.85677
C          1.62721        1.03118        0.37223
C         -2.39036       -0.97004       -1.32354
H         -3.83437       -0.56269        1.19748
H         -2.79363       -0.90876        2.57314
H         -2.81377       -1.99400        1.18044
H         -3.37790       -1.11780       -0.91679
H         -1.94893       -1.94381       -1.51943
H         -2.50691       -0.45522       -2.26858
H         -0.47309        0.34901       -2.08933
H          0.86173       -1.63537       -1.55205
H          3.04703       -2.37520       -0.72756
H          4.32877       -0.96060        0.84423
H          3.41384        1.23111        1.53321
H          1.23914        1.97563        0.69840
H         -0.90268        2.48760        0.01903
H         -1.74587        2.31277       -1.51065
H         -0.03443        2.70888       -1.49898
