28
../min.c.300.o.330.log	Energy: -350353.8995505
N         -1.39383        0.66473        0.05665
O         -2.09890       -1.49797       -0.00646
C         -3.47985        0.09050       -1.13077
C         -2.27741       -0.32158       -0.29808
C         -0.37851        0.30993        1.07132
C         -0.95283       -0.65760        2.10874
C          0.97207        0.04982        0.41163
C          2.03107        0.92025        0.69353
C          3.27245        0.75389        0.09631
C          3.49940       -0.32469       -0.75685
C          2.46217       -1.20449       -1.03405
C          1.20658       -1.01446       -0.45775
C         -1.15457        1.84733       -0.76053
H         -3.95213        0.98696       -0.74771
H         -4.18509       -0.72758       -1.12171
H         -3.18068        0.27385       -2.15780
H         -2.07532        2.20565       -1.19559
H         -0.44092        1.65252       -1.55443
H         -0.75719        2.63385       -0.13174
H         -0.24464        1.24006        1.61632
H          1.87756        1.74546        1.36719
H          4.06797        1.44441        0.31386
H          4.46668       -0.46546       -1.20509
H          2.62212       -2.03846       -1.69392
H          0.40804       -1.69929       -0.67715
H         -0.90186       -1.69269        1.82979
H         -1.97914       -0.39715        2.32690
H         -0.38078       -0.52489        3.02530
