28
../min.c.105.o.285.log	Energy: -350346.0803980
N         -1.47708        0.30461        0.30507
O         -2.49985       -1.13963       -1.12549
C         -2.31289       -1.84193        1.14742
C         -2.18687       -0.83268        0.01846
C         -0.50443        0.65455       -0.75219
C         -0.64406        2.12198       -1.16372
C          0.90761        0.25351       -0.33707
C          1.47270       -0.89034       -0.91230
C          2.74295       -1.31954       -0.55323
C          3.47722       -0.61353        0.39729
C          2.93307        0.52835        0.96894
C          1.65779        0.95808        0.60329
C         -2.00753        1.38536        1.12615
H         -1.35647       -2.35358        1.18838
H         -3.09284       -2.55926        0.93453
H         -2.47819       -1.38164        2.11364
H         -2.62539        0.96729        1.91218
H         -2.61719        2.07927        0.55937
H         -1.20209        1.92498        1.60351
H         -0.76271        0.07288       -1.61760
H          0.91230       -1.44542       -1.64415
H          3.15845       -2.20092       -1.00852
H          4.46063       -0.94539        0.67828
H          3.49378        1.08644        1.69765
H          1.25941        1.84717        1.05832
H         -0.40547        2.81967       -0.37113
H         -1.65204        2.32092       -1.50822
H          0.03288        2.32950       -1.98615
